Geom Title=New Geometry
Program Version=6.60
Viewing Rectangle=403417.567895296,410708.72756569,1805776.23975116,1800800.36445063

River Reach=River 1,Reach 1
Reach XY=20
 403748.984243951801777.46529155404395.4469765971801698.84144568
404578.9026169431801707.57742856405469.972870051 1802257.9443496
405627.2205617761802633.59161316405391.3490241891803035.44682535
404947.9788873281804095.44325816404862.8634636331804559.70920559
404950.5581425921804843.42728458405481.8847268771805091.03578987
406229.8687532971805147.77940567406575.4889586091805075.56025829
407354.4240481921804719.62303193407563.3437245371804533.91665295
407697.4649982391804322.41772135408264.901156214 1803951.0049634
409422.9867695331802826.44966851409680.9122958851802769.70605271
409938.8378222371802800.65711587410377.3112170351803094.69221591
Rch Text X Y=,
Reverse River Text=0

Type RM Length L Ch R =1,10295,915.7,915.7,915.7
XS GIS Cut Line=2
 404488.729686931802032.79323453404653.839763241 1801018.5456229
Node Last Edited Time=Feb/03/2026 19:07:57
#Sta/Elev=225
       0  928.71     2.9  929.03     6.2  929.25     7.3  929.36    11.9  929.66
      17  930.31    18.3  930.44    20.4  930.69      22  930.84    27.1  931.11
    29.1  931.15    30.4  931.23    32.2  931.28    37.2  931.62    41.2  931.87
    47.4  932.19    48.6  932.21    50.9   932.2    52.4  932.25    57.5  932.59
    62.6  932.91    67.6  933.25    72.7  933.25    77.8  933.56    82.8  933.91
    87.9  934.22      93  934.56    94.4  934.61      97  934.78    98.8  934.85
   107.5   934.9   108.2  934.93   109.1  934.97   111.9  935.17   113.2  935.22
   118.3  935.22   120.6  935.29   121.2  935.33   124.9  935.48   127.2  935.49
   128.4  935.53   133.5  935.53     138  935.86   138.6  935.88   158.8  935.88
   159.8   935.9   163.5  936.16   163.9  936.17   164.1  936.18   168.9  936.22
   169.6  936.25   172.8  936.49     174  936.53   196.8  936.53   204.4  936.61
   205.9  936.67   207.7  936.79   209.5  936.84   223.5  936.84   224.7  936.84
   229.7  936.53   234.8  936.53   239.9  936.19   244.9  935.88     250  935.53
   251.3  935.16   254.3  934.18   255.1  933.95   260.1  931.27   265.2  927.93
   270.3  924.26   275.3  921.59   277.4  920.96   278.5  920.67   280.4  920.12
   285.5  919.47   286.1  919.42   290.1  919.15   290.5  919.13   290.5  919.12
   294.8  918.86   295.6  918.81   300.7  918.47   305.7  918.16   307.9  918.01
   308.8  917.95   316.6  917.45   320.9  917.16     321  917.15   321.3  917.11
   325.3  916.61     326  916.55   336.1  916.01   338.4  915.82     339  915.74
   341.2  915.53   346.3  915.19   347.1  915.19   351.1  915.19   351.3  915.19
   351.5  915.18   352.4  915.12   355.8  914.87   356.4  914.83   357.2  914.75
   360.2  914.34   361.4  914.22   363.2  914.22   366.5  914.22   369.3  914.11
   371.6  914.01   373.2  913.83   375.3  913.54   376.6  913.39   377.6  913.28
   381.4  912.96   381.7  912.93     382  912.91   383.5  912.78   386.8  912.56
   387.4  912.54   390.7  912.53   391.8  912.48   393.5  912.36     395  912.25
   396.9  912.12   399.4  912.24     402  912.44   403.7  913.37   405.6   914.2
     407  914.95   408.1  916.86   411.6  924.27   412.1  925.19   412.5  926.09
   414.6  932.36   415.6935.1509   416.8   938.5   417.2  939.44   417.7  939.78
   421.2  942.41   422.2  943.08   427.3  943.53   429.8  943.51   429.9   943.5
   434.2  943.51   437.4  943.58   438.6   943.6   441.9  943.77   442.5  943.78
     443  943.82   447.6  944.39   451.7  944.37   452.6  944.41     483  944.41
   484.2  944.48   486.5  944.62   488.1  944.72   528.6  944.72   532.6  944.99
   533.7  945.06   675.5  945.06   677.9  945.21   678.2  945.23   680.6  945.38
   705.9  945.38   708.1  945.52     711  945.72   751.5  945.72   752.3  945.69
   756.5  945.72   756.6  945.72     761  945.42   761.6  945.38   781.9  945.38
   782.8  945.32   786.8  945.08     787  945.06   787.1  945.06     788  945.06
   791.5  945.08     792  945.06   827.5  945.06   830.7  944.91   832.6  944.87
     835  944.81   837.6  944.72   949.1  944.72   950.1  944.69   952.7  944.54
   954.1  944.51   956.2  944.47     957  944.47   959.2  944.41   974.5  944.41
   974.8  944.41   978.8  944.43   979.5  944.45   980.4  944.49   983.2  944.68
   984.5  944.72   986.4  944.72   987.5  944.72   989.6  944.72   991.9  944.72
   992.5  944.72   994.7  944.72   996.2  944.77   999.7  944.99  1000.6  945.03
  1004.8  945.06    1005  945.06  1009.3  945.06  1009.9  945.06  1010.7  945.09
  1013.7   945.1  1014.9  945.15  1016.7  945.23    1018  945.31    1020  945.38
  1022.4  945.38  1022.8  945.38  1025.1  945.38  1026.7  945.38  1027.6  945.38
#Mann=1,-1,0
       0     0.3       0
Bank Sta=223.5,415.6
XS Rating Curve=0,0
XS HTab Starting El and Incr=912.27,0.3,100
XS HTab Horizontal Distribution=5,5,5
Exp/Cntr(USF)=0,0
Exp/Cntr=0.3,0.1

Type RM Length L Ch R =1,9379,435.2,435.2,435.2
XS GIS Cut Line=2
405109.8580692441802465.22438677 405432.215837281802024.93084994
Node Last Edited Time=Feb/03/2026 19:07:57
#Sta/Elev=160
       0  929.62     9.3  929.62    10.5   929.6    11.4  929.62    17.8  929.62
    23.8   929.4    24.8  929.39    26.2  929.44      30  929.62    34.7  929.62
    43.2  929.31    51.6  929.31    60.1  928.97    68.5  928.66      77  928.66
    79.5  928.55    82.1  928.52    85.7  928.65    93.9  928.31    98.1  928.16
    99.9  928.14   102.4  928.21   104.3  928.31   119.3  928.31   121.4  928.27
     125  928.37   128.6   928.3   129.1  928.31   135.3  928.31   141.5  928.66
   142.9  928.76   146.4  929.21   147.7  929.31   153.9  929.62   160.1  930.28
   160.8  930.33   161.6  930.44   166.3   931.3   167.9  931.55   171.5  931.96
   175.1  932.52   178.6  932.91   184.9  933.82   185.8   933.9     187  934.01
   189.4  934.22   191.1  934.38   192.5934.4758     193  934.51   195.5  934.56
   196.5  934.54   197.3  934.56   203.5  934.56   203.7  934.57   207.3  934.81
   209.7  934.88   212.4  934.88   214.4  934.84   215.9  934.75   220.9  934.56
   234.5  934.56   235.9  934.52   237.8  934.38     243   933.9   246.9  933.54
   253.1  932.66   253.8  932.57   254.7  932.41   257.4  931.88   259.3  931.41
   263.2  930.32   264.5  929.99   265.5   929.7   271.7     928   275.2  927.07
   278.8  926.32   280.1   926.1   282.4  925.65     284  925.24   289.5  923.74
   290.2  923.59   296.4  922.46   296.7  922.39   297.1  922.27   302.6  920.46
   303.9  920.16   307.4  919.43     311  918.53     314  917.92   317.8  917.37
   322.5  916.71   325.3  916.24   327.4  915.99   328.9  915.81   330.9  915.67
   332.5  915.53   333.6  915.42   336.1  915.13   339.4   914.9     346  914.29
   346.8  914.24   347.9  914.22   350.4  914.17   353.9  913.92   357.5  913.85
   358.4   913.8   364.8  913.56   381.7  913.56   382.6  913.53   383.2   913.5
   386.1   913.3   387.2  913.28   389.4  913.22   390.2  913.22   393.3  913.22
   395.6  913.22   401.8  912.91     408  912.91   411.2  912.98   414.2  913.17
   414.8  913.24   415.6  913.37   418.3  913.82   421.9  914.57     424  915.12
   425.5  915.44   426.6  915.73   429.1  916.52   432.5  917.74   432.7  917.78
   432.8  917.82   433.5  918.15   436.2  919.32   439.8  921.05   443.4  923.16
   445.2  924.37     447  925.65   450.5  928.35   451.4  929.03   456.7  933.14
   457.6  933.84   457.7  933.92   457.9  934.05   463.8  937.44   464.8  937.96
   466.3  938.67   468.4  939.41   469.9  939.81   474.8  940.57   475.6  940.71
   476.1  940.78   481.4  940.78   482.3  940.78   482.7  940.78   483.3  940.78
   486.3  940.84   488.5  940.99   489.9  941.09   491.7  941.12   545.7  941.12
#Mann=1,-1,0
       0     0.3       0
Bank Sta=192.5,481.4
XS Rating Curve=0,0
XS HTab Starting El and Incr=913.06,0.3,94
XS HTab Horizontal Distribution=5,5,5
Exp/Cntr(USF)=0,0
Exp/Cntr=0.3,0.1

Type RM Length L Ch R =1,8944,588.2,588.2,588.2
XS GIS Cut Line=2
405338.5391984411802541.76393165405847.2293615871802459.52061186
Node Last Edited Time=Feb/03/2026 19:07:57
#Sta/Elev=92
       0  929.31     6.6  929.32     7.4  929.35    10.9  929.59      12  929.62
    27.2  929.62    32.2  929.97    37.1  930.28    37.6  930.33    41.4  930.85
    42.4  930.94    52.5  932.25    54.5  932.32    55.7   932.4    58.9  932.55
    61.7  932.56    62.6  932.59    73.8  932.59   118.3  932.59   123.4  932.25
   133.5  932.25   138.6  931.94   143.7  931.28   146.1  930.88   150.4  930.12
   152.4  929.73   153.8  929.47   158.8  928.05   163.9  926.94   164.4  926.81
   167.9  925.87     169  925.61   184.2   922.5   189.2  922.13   192.5  921.67
   194.3  921.44   194.6  921.43   198.4  921.41   199.4  921.36   209.5  920.59
   214.6  920.54   215.8  920.48   218.8  920.47   219.6  920.44   220.2  920.42
   224.7  920.12     250  920.12   250.7   920.1   255.1  919.78   285.5  919.78
   285.6   919.8   286.5  919.85     290  920.09   290.5  920.12   291.3   920.2
   294.3  920.57   295.6  920.68   298.7  921.18   300.7  921.45     303  921.95
   305.7  922.54   307.4  923.12   309.4  923.75   310.8  924.21   317.8  926.79
     326  929.88   327.6  930.43   329.2  931.04   331.1  931.66   333.6  932.35
   336.1  933.05   337.9   933.5   341.2  934.31   342.3  934.51   345.7  935.14
   346.2  935.25     351  935.81   351.3  935.85   355.2936.0624   361.4   936.4
   364.1  936.45   366.5  936.53   368.5  936.65   369.9  936.74   371.6  936.84
   412.1  936.85   416.4  937.16   417.2  937.19   467.8  937.19   468.7  937.24
   472.9   937.5   515.3   937.5
#Mann=1,-1,0
       0     0.3       0
Bank Sta=73.8,355.2
XS Rating Curve=0,0
XS HTab Starting El and Incr=919.9301,0.3,59
XS HTab Horizontal Distribution=5,5,5
Exp/Cntr(USF)=0,0
Exp/Cntr=0.3,0.1

Type RM Length L Ch R =6,8926,,,
Node Name=bank
Node Last Edited Time=Feb/03/2026 19:15:02
Lateral Weir Pos=0
Lateral Weir End=,,,Perimeter 1
Lateral Weir Distance=0
Lateral Weir TW Multiple XS=0
Lateral Weir WD=100
Lateral Weir Coef=1.1
LW OverFlow Method 2D=0
LW OverFlow Use Velocity Into 2D=0
Lateral Weir WSCriteria=0
Lateral Weir Flap Gates=0
Lateral Weir Hagers EQN=0,,,,,
Lateral Weir SS=0.05,0.05,
Lateral Weir Type=0
Lateral Weir Connection Pos and Dist=0,
Lateral Weir SE=359
       0   937.5    24.5   937.5      30  937.19    51.8  937.19    57.2  936.84
    68.1  936.84    73.5  936.53    84.4  936.53    91.3  936.23   100.7  936.19
   102.7  936.07105.5156935.7046  114.62935.7046  114.62935.0854     118  934.91
   122.5  934.49   133.4  933.87   138.8  933.24   149.7  932.68   155.2  932.08
   160.6  931.73   167.4  931.61   171.5  931.85     177  931.28   182.7  930.99
   197.9  931.47   204.2  931.06   209.6  930.91211.1577930.7785  219.65930.7785
  219.65930.0617   220.5  929.99   225.9  929.18   231.4  928.72   235.9  928.08
   242.3  927.45   246.5  927.08246.7244 927.067  257.73 927.067  257.73926.7039
   269.5  926.74     274  926.37   285.8  925.69     293  926.08   307.6  925.69
   318.5  924.82323.3695924.0625348.3044924.0625   350.1  924.34   356.6  925.01
   361.5  925.79   367.5  926.41   385.6  927.34   400.1  928.78   403.4  928.71
   407.2   928.8     411  928.96   416.5   929.4     449  929.61   454.6  929.48
   476.3  930.23   481.8  930.09   487.2  930.27   509.9  930.37   513.7  930.56
   519.9  930.62   525.8  930.96   530.8  931.45   536.2  931.59   547.1  931.59
   552.5  931.94   568.9  931.94     588  932.91   593.7  932.98     607  933.56
   612.4  933.56   617.9  933.91   635.5  933.94   645.1  934.72     656     935
   661.4  935.47     666  935.56   677.7  936.19   694.1  936.22   699.5  936.53
   732.2  936.53   748.5  936.88   851.9  936.88   857.4  936.53   895.4  936.53
   904.7  936.22   976.7  936.22   982.3  935.88   993.8  935.85  1003.8  935.22
  1009.1  935.22  1014.6  934.91  1025.4  934.25  1043.5  932.111056.988931.3125
  1100.2931.3125  1100.2930.3125 1161.17930.3125 1161.17  929.66    1177  929.66
  1182.5  929.31  1188.8  929.29  1193.3     929  1198.7     929  1204.2  928.66
    1215  928.66  1220.4  928.34    1227   928.3  1231.2     928    1242     928
1244.454927.8617 1316.48927.8617 1316.48927.68751399.061927.6875  1399.1  927.69
  1415.3  927.69  1420.7     928 1424.62928.0094 1424.62928.6875 1467.59928.6875
 1467.59  928.34  1469.5  928.34  1474.9   928.4  1480.3  928.59  1487.1  928.46
  1491.2  928.641515.641928.0313  1640.9928.0313 1697.41928.03131839.659928.0313
 1842.48928.2231 1842.48     929 1942.53     929 1942.53929.6563 2042.57929.6563
 2142.62929.6563 2242.67929.6563  2305.3929.6563 2400.15929.6563 2400.15     930
 2454.08     930 2454.08930.3125 2623.76930.3125 2623.76930.6563 2677.69930.6563
 2828.64930.6563 2928.65930.6563 2928.65930.3125 3028.65930.3125 3028.65930.4826
 3128.65930.4826 3128.65930.3125 3228.66930.3125 3328.66930.3125 3328.66930.9688
3416.692930.9688  3418.5  931.03  3419.3  931.03  3421.4   931.1  3426.4  931.42
  3428.4  931.62  3429.4  931.69  3431.4  931.89  3434.4  932.07  3436.4   932.2
  3438.3  932.45  3439.4  932.59  3441.4  932.85  3443.3  932.98  3444.5  933.06
  3446.4  933.19  3448.3  933.43  3449.5  933.59  3451.4  933.84  3456.4  934.15
  3458.2  934.38  3459.6  934.56  3466.4  935.34  3491.4  936.97  3496.4  936.97
  3497.9  937.07  3501.4  937.29  3502.8  937.34  3506.6  937.53  3522.7  937.16
    3528  937.37  3549.4  936.88  3549.5  936.88  3554.8  937.06  3576.5  936.54
    3587  936.53  3588.1   936.5  3591.9  936.23  3592.3  936.22  3608.4  936.22
  3611.3  936.31  3613.8  936.33  3618.6  936.22    3619  936.21  3619.5  936.19
  3624.5  935.88  3632.5  935.88  3640.6  935.56  3660.2  935.56  3674.1  935.22
  3683.5  935.33  3684.7   935.3    3688  935.22  3688.6  935.22  3688.8  935.22
  3692.5   935.4  3694.2  935.41  3696.3  935.36  3698.1  935.31  3699.5  935.28
  3700.2  935.28  3704.1  935.48  3710.3  935.56  3726.4   935.3  3737.1  935.56
  3758.5  935.56  3769.8  935.24  3777.5  935.15  3781.4  934.95  3785.1  934.91
  3785.3  934.91  3789.1  934.91  3790.7  934.91    3793  934.833796.839934.5938
 3895.92934.5938 3895.92933.5938 3950.69933.5938 3950.69933.28134102.038933.2813
  4102.3   933.3  4106.2  933.55  4106.9  933.59 4127.72  933.59 4127.72  934.25
 4165.24  934.25 4165.24934.5625 4272.52934.56254396.846934.5625  4407.1  934.62
  4409.4934.5625 4409.66934.5625  4417.8  934.694423.292934.5625 4436.78934.5625
 4436.78935.0609 4475.45935.0609 4475.45935.56254569.993935.5625  4596.9  936.84
  4641.6  936.84  4641.6936.88014653.302936.8801  4655.1  936.97  4657.8  937.11
  4666.4  937.19  4669.2  937.32  4672.8  937.46  4673.3  937.45  4676.3  937.46
  4679.4  937.46  4686.9  937.83  4687.2  937.84  4690.5  937.99  4693.8  938.14
    4694  938.14  4694.2  938.14  4697.5  938.15  4708.1  938.16    4715  937.86
  4722.3  937.51  4722.6   937.5  4725.8   937.5  4727.1   937.5  4729.4  937.52
  4730.5   937.5    4733  937.41  4736.6  937.34  4740.2  937.45  4740.6  937.43
  4742.6  937.24  4743.8   937.1  4746.6  936.924747.647936.8801  4787.3936.8801
  4787.3936.1295  4794.4  935.88  4794.7  935.88    4798  935.88  4803.5  935.88
  4806.4  935.76    4812  935.55  4812.4  935.54  4812.5  935.54  4812.6  935.53
  4816.1  935.41  4818.4  935.33  4819.7  935.29  4823.3  935.19  4824.3  935.12
  4826.9  935.02  4829.4  934.93  4830.3  934.89  4830.5  934.89  4830.8  934.88
  4859.4  934.85  4860.2  934.88    4863  934.96  4864.1  934.93  4866.2  934.92
  4866.6  934.91  4872.2  935.22  4876.4  935.22  4878.1  935.22  4884.1  935.53
    4914  935.53  4917.2  935.63  4924.4  935.74    4926  935.73    4928  935.71
  4931.1  935.83  4931.6  935.85    4932  935.84  4933.6  935.83  4937.9  935.88
  4949.4  935.53  4991.7  935.53    4993  935.53  4996.6  935.47  4997.7  935.44
  5000.2  935.35    5003  935.26  5003.9  935.23  5004.1  935.22 5075.29  935.22
 5075.29935.5625 5128.42935.5625 5128.42 935.8755189.473 935.875    5195  936.17
  5195.2  936.21  5206.1  938.42    5213   940.1  5213.3  940.16  5213.8  940.27
  5216.9  940.84  5218.9  941.12  5220.5  941.38  5222.1  941.63
Lateral Weir Centerline=9
405847.8006257981802488.50152492405497.0219099591803303.54618819
405149.6357641761804138.42919497405133.8358551361804651.89470995
405558.7596740511804862.98589741406282.5008882031804857.50300943
407162.5044099571804517.56395429407364.0005434421804322.92143079
407777.9585863851804051.51847548
LW Div RC=0,False,,

Type RM Length L Ch R =1,8356,574.1,574.1,574.1
XS GIS Cut Line=2
405062.683761726 1802960.5546157 405558.013990661803047.04084615
Node Last Edited Time=Feb/03/2026 19:07:57
#Sta/Elev=139
       0  931.62    43.3  931.62    48.4  931.94    53.5  931.94    54.6  931.98
      58  932.23    58.9  932.27    68.7  932.28    73.8  932.59    78.8  932.59
    83.9  932.94    88.8  933.24    94.1  933.59    99.1  933.91   104.2  934.25
   124.5  934.25   125.7  934.29     128   934.3   129.6  934.36   134.7  934.42
   136.7  934.38     138   934.3   139.7  934.25   175.3  934.25   177.2  934.12
   179.9  933.91   185.4   933.5   187.2  933.42   188.5  933.32   190.5  933.25
   195.6  932.94   200.7  932.59   213.7  932.59     221  932.59     226  932.28
   227.4  932.05   230.2  931.49   231.1  931.33   236.2  930.62   236.4  930.59
   240.4   929.8   242.5  929.45   244.7  929.03   246.3  928.79   248.7  928.06
     249  927.99   251.4  927.14   253.3  926.38   254.8  925.54   256.5  924.78
   257.7  924.37     261  922.99   261.6  922.76     262  922.49   264.4   921.5
   266.3  920.81   266.6  920.73   267.1  920.68   270.6  920.16   271.7  920.05
   273.3  919.98     275  919.87   276.8  919.81   307.2  919.81   309.5  919.66
   310.1  919.62   312.3  919.47   322.5  919.47   322.6  919.48   326.8  919.79
   327.5  919.81   331.1  919.86   332.6  919.92   334.7  920.08   335.5  920.13
   337.7   920.3   339.8   920.4   340.9  920.41   344.1  920.51     347  920.71
   347.8  920.74   351.7  921.04   352.9  921.14   353.2  921.15   357.1  921.41
     358  921.44   359.3  921.48   361.4  921.49   363.1  921.57   368.2  921.96
     370  922.16   371.6  922.28   373.2  922.44   378.3  922.75   378.7  922.79
   383.4  923.41   387.3  923.67   393.5  924.06   395.9   924.3   396.2  924.34
   398.6   924.6   400.3  924.78   402.4  924.94   403.7  925.06   408.8  925.38
   413.2  925.97   413.8  926.03   417.6  926.03   418.9  926.03   420.8   926.1
   421.9   926.1   426.2   926.3     427   926.3   429.1  926.38   430.5  926.33
   433.1  926.13   434.1  926.09   439.2  926.03   439.3  926.03   443.5  926.29
   445.4  926.34   447.8  926.32   449.4  926.38   454.4  926.38   456.4   926.5
   457.7  926.58   459.5  926.69   460.8  926.77   464.6  927.03   468.2927.4966
   479.8     929   482.3   929.4   486.7  930.15     491     931     495  931.87
   495.3   931.9   499.7     932   500.8  932.13   502.8  932.45
#Mann=1,-1,0
       0     0.3       0
Bank Sta=213.7,468.2
XS Rating Curve=0,0
XS HTab Starting El and Incr=919.62,0.3,49
XS HTab Horizontal Distribution=5,5,5
Exp/Cntr(USF)=0,0
Exp/Cntr=0.3,0.1

Type RM Length L Ch R =1,7782,804.4,804.4,804.4
XS GIS Cut Line=2
404889.7113008291803487.33438298405298.5552993141803573.82061343
Node Last Edited Time=Feb/03/2026 19:07:57
#Sta/Elev=74
       0  931.94     5.8  931.94     7.9  932.01       9  932.09    10.9  932.18
      16  932.25    16.3  932.27    21.1  932.28    21.9  932.31    24.8  932.33
    28.4  932.49      29  932.52    31.3  932.59    66.2  932.59    77.3  932.75
    79.6  932.71    82.4  932.59    97.8  932.59   102.9  932.28   143.7  932.28
   145.1  932.24   147.1  932.12   151.3  932.03     154  931.94   169.3  931.94
     171  931.88   172.4  931.88   176.6  931.69   177.5  931.69   179.5  931.62
   184.6  931.62     187  931.46   189.3  931.27   190.5  931.19   193.5  930.96
   225.5  928.47   227.2   928.4   229.4  928.38   230.6  928.34   235.7  928.34
   240.9  927.93   242.3  927.86   244.1  927.74     246  927.69     261  927.68
   265.2  927.38   266.4  927.34   281.7  927.34   286.8  927.69   322.6  927.69
   327.7     928   328.5  928.02     332  928.29   332.7  928.33   332.8  928.34
   333.1  928.37   336.9  928.63     338  928.74   339.6  928.92   341.1  929.06
   343.1   929.3   345.3  929.65     346   929.7   353.3  930.62   368.6  930.62
   373.7  930.97   374.9  930.93   378.4  930.66   378.8  930.65   379.1  930.64
   380.3  930.62   414.6  930.62   417.1  930.55417.8915  930.51
#Mann=1,-1,0
       0     0.3       0
Bank Sta=0,417.8915
XS Rating Curve=0,0
XS HTab Starting El and Incr=927.4901,0.26,20
XS HTab Horizontal Distribution=5,5,5
Exp/Cntr(USF)=0,0
Exp/Cntr=0.3,0.1

Type RM Length L Ch R =1,6978,768,768,768
XS GIS Cut Line=2
404630.2526094831804312.88476454405078.4085308991804297.15999537
Node Last Edited Time=Feb/03/2026 19:07:57
#Sta/Elev=116
       0  933.71    20.1  933.66    21.2  933.63    24.1  933.62    25.1  933.59
    40.1  933.59    45.1  933.91    50.1  934.25    55.1  934.25    59.9  934.54
    60.4  934.55    64.7  934.55    65.1  934.56    65.6  934.58    69.5  934.84
    70.8  934.88    74.4  934.88    75.1  934.91    80.1  934.91    81.1  934.94
      84  935.12    86.3  935.18    88.9  935.18    90.2  935.22   110.2  935.22
   115.2  935.08   117.9  934.79   120.2  934.56   121.9934.4546   125.2  934.25
   140.2  932.28     142  931.97   143.4  931.71   146.9  931.12   148.6   930.9
   150.2  930.62   155.2  929.66   160.2     929   161.4   928.8   164.1  928.26
   165.2  928.07   166.2  927.84   169.3  927.24   170.2  927.03   180.2  925.72
   180.7  925.63   184.8   924.8   185.2  924.74   190.2  924.06   195.2  923.75
   200.2   923.4   205.2  923.09   210.2  922.75   215.2  922.44   230.2  922.44
   235.2  922.75   240.2  923.09   245.2  923.75   250.2  924.06   252.3   924.2
   255.3  924.41   260.3  924.72   265.3  925.38   270.3  925.72   275.3  926.18
   280.3   926.5   285.3  927.15   290.3  927.46   291.9  927.67   293.7   927.9
   295.3   928.1   296.7  928.38   300.3  929.08   301.6  929.37   304.1  929.85
   305.3  930.12   306.4   930.4   315.3   932.7   316.1  932.82   319.7  933.53
   320.3  933.63   320.9  933.69   324.8   934.2   325.3  934.25   325.7  934.26
     330  934.26   330.3  934.27   355.3  934.21     356  934.25   360.3  934.51
   370.3  934.49   375.3  934.16   380.3  934.15   388.6  933.59   390.3  933.47
   392.2  933.15   393.4  932.92   395.3  932.59   397.4  932.12   398.2  931.96
   400.3  931.47   405.3  930.81   407.8  930.56   407.9  930.55   410.3  930.31
   415.4  929.97   417.6  929.83   418.2  929.79   420.4  929.66   422.4  929.39
   423.4  929.26   424.7 929.091   425.4     929   427.2  928.87   430.4  928.66
   448.4  928.66
#Mann=1,-1,0
       0     0.3       0
Bank Sta=121.9,424.7
XS Rating Curve=0,0
XS HTab Starting El and Incr=922.59,0.3,42
XS HTab Horizontal Distribution=5,5,5
Exp/Cntr(USF)=0,0
Exp/Cntr=0.3,0.1

Type RM Length L Ch R =1,6210,794.1,794.1,794.1
XS GIS Cut Line=2
 405054.821377141805177.74706903405212.0690688651804729.59114761
Node Last Edited Time=Feb/03/2026 19:07:57
#Sta/Elev=152
       0  950.66     1.8  950.66     7.1  950.31    12.4     950      23     950
    28.3  949.66    38.9  949.66      41  949.59    42.7  949.47    44.9  949.36
    46.9  949.34    54.8  949.34    60.1     949    65.4     949    67.2  948.95
    68.4  948.93    72.4  948.74      76  948.69    81.3  948.34    86.6  948.34
    91.9  948.03    97.2  947.69   102.5  947.03   103.7  946.92   107.7  946.39
   113.1  945.72   118.4  944.75   119.4  944.52   123.4   943.5   123.7  943.44
     129  943.09     131  943.09   134.3  943.09   137.5   942.9     139  942.78
   139.6  942.73   140.7  942.61     143   942.3   144.9  942.12   150.2  941.47
   152.6  941.01   155.5  940.41   160.8  939.64   166.1  938.22   171.4  937.11
   176.7  935.69     182  934.58   182.8  934.35   187.3  933.06   189.7  932.43
     190  932.33   192.6  931.74   197.9  930.31   201.8  929.21   203.2  928.88
   213.8  926.67   219.1  925.92   221.4   925.5   222.3  925.38   224.4  925.06
   229.3  924.46   229.7  924.41     235  924.09   237.1  924.09   240.3  924.09
     241  924.07   243.2  924.09   245.6  924.09   246.8  924.12   248.9  924.13
   250.9  924.24   261.5  925.13   264.6  925.58   266.8  925.89   272.1  926.34
   272.4  926.39   273.4  926.55   277.3  927.03   279.5  927.23   280.3  927.28
   282.6  927.55   284.2  927.78   287.6  928.28   287.9  928.33   288.1  928.35
   288.5  928.42     292  928.88   293.2   929.1   295.8  929.38   295.9   929.4
   298.5  929.75   299.9  930.05   303.8  930.96   303.8  930.97   307.7  931.81
   309.1  932.18   311.6  932.76   312.1  932.87   314.4  933.41   318.7  934.66
   319.5  934.87   319.7  934.95     325  936.15   327.3  936.61   328.4  936.78
   330.3  937.12   333.8  937.62   335.2  937.83   335.6  937.88   340.9  938.33
     343  938.44   344.8  938.46   346.2   938.5   350.9   938.5   352.9  938.55
   354.8  938.57   358.7  938.78   361.1  938.81   362.1  938.84   383.3  938.84
   386.2  938.76   388.6  938.63   390.1  938.55   393.8  938.51   393.9   938.5
   397.9  938.46   399.2   938.4   401.9  938.18   401.9  938.17   404.5  937.95
   405.8  937.81   413.6  936.58   415.1  936.28   416.5935.9631   420.4  935.08
   424.4  934.15   425.4  933.91   425.7  933.82   426.4  933.63   429.3  932.75
     431  932.31   433.2  931.81   436.3  931.11   437.2  930.97   441.6  930.58
   446.9  929.82   448.9  929.65   450.9  929.48   452.2  929.37   452.8  929.33
   454.6  929.31   474.9  929.31
#Mann=1,-1,0
       0     0.3       0
Bank Sta=131,416.5
XS Rating Curve=0,0
XS HTab Starting El and Incr=924.22,0.3,88
XS HTab Horizontal Distribution=5,5,5
Exp/Cntr(USF)=0,0
Exp/Cntr=0.3,0.1

Type RM Length L Ch R =1,5416,583.8,583.8,583.8
XS GIS Cut Line=2
405864.6469895241805382.16906827405927.5460662141804902.56360851
Node Last Edited Time=Feb/03/2026 19:07:57
#Sta/Elev=139
       0  959.62     6.2  959.19    11.2  959.19    12.1  959.16      15  959.14
    17.9  959.02    19.5  958.91    23.9  958.77    28.4  958.59    29.5  958.59
    32.8  958.48    35.3   958.3    36.4  958.25    37.3  958.16    46.5  957.53
    51.6  957.22    61.7  955.91      64  955.51    66.7  955.05    71.7  954.02
    76.8  952.33    77.4  952.09    82.3  950.13    86.3  948.53    86.9  948.34
    91.9  946.38    93.4  945.76    95.3  944.91      97  944.21    99.7  942.73
     102  941.47     107  937.53   108.6  935.36   110.8  932.59   112.1  930.82
   117.1  928.59   120.8  927.49     122  927.13   122.2  927.08   126.5  926.64
   127.2  926.54   128.2  926.47   130.9  926.34   132.3  926.23   137.3  926.31
   139.8  926.44   142.3  926.55     155926.6552   159.2  926.69   162.1  926.73
   162.5  926.72     163  926.67   166.6  926.25   167.6  926.17   168.8  926.07
     171  925.96   172.6  925.83   177.6  925.21   182.7  924.93   184.4  924.78
   186.2  924.55   187.7  924.41     192  924.11   192.8  924.06   193.3  924.03
   197.8  923.75   202.9  923.41   207.9  923.41   212.9  923.09     223  923.09
   224.5  923.14   226.9  923.13   228.1  923.16     229  923.18   232.7  923.39
   233.1  923.41   238.2  923.41   243.2  923.75   248.2  923.75   250.1  923.81
   251.3  923.81   255.7  923.99   258.3  924.06   263.4  924.41   268.4  924.72
     278  925.36   278.5  925.41   279.1  925.47   282.5  925.93   283.5  926.03
   288.6  926.69   293.6  927.51   295.9  927.97   298.7  928.54   300.3  929.04
   302.3  929.56   303.7  929.97     313   933.6   318.8  935.93   319.7  936.25
   322.6  937.39   323.9  937.84   327.1  938.54   328.9  938.97   331.3  939.38
   331.5  939.42     334  939.81     336  939.95   337.1  940.03     339  940.16
   340.5  940.25     344  940.47   429.6  940.47   429.8  940.47     430  940.46
   430.2940.4473   434.1   940.2   434.8  940.16   435.8  940.03   444.9  938.84
   449.9  937.84   451.9   937.4   453.2  937.16     455  936.77   456.4  936.56
     459  936.04     460  935.88   460.8  935.72   465.1  934.91   465.3  934.86
   466.8  934.56   470.6  933.78   474.2  933.06   475.2  932.86   478.7  932.38
   480.2  932.16   482.2  931.95   483.1  931.83   483.7  931.77
#Mann=1,-1,0
       0     0.3       0
Bank Sta=155,430.2
XS Rating Curve=0,0
XS HTab Starting El and Incr=923.2401,0.3,100
XS HTab Horizontal Distribution=5,5,5
Exp/Cntr(USF)=0,0
Exp/Cntr=0.3,0.1

Type RM Length L Ch R =1,4832,697.4,697.4,697.4
XS GIS Cut Line=2
406517.2249101831805350.71952992 406438.601064321804863.25168558
Node Last Edited Time=Feb/03/2026 19:07:57
#Sta/Elev=164
       0  946.38     4.7  946.38     9.8  946.06      25  946.06    27.5  945.98
    31.9  945.78    33.6  945.77    35.1  945.72    45.3  945.72    49.3   945.5
    51.7  945.45    53.7  945.46    55.4  945.41    75.6  945.41    79.9  945.15
    81.9   945.1    84.2  945.12    85.8  945.06    87.9     945    88.6  944.96
    90.8  944.91    95.9  944.96    97.3  944.93     100  944.97     101  944.96
   101.7  944.95     106  944.75   110.4   944.5   116.2   944.2   118.1  944.15
   119.1  944.16   123.5  944.02   124.2  944.02   126.3  943.97   146.5  942.87
   156.7  941.66   158.4   941.4   159.4 941.285   160.4  941.17   162.7  940.84
   166.4  940.46   166.8  940.41   168.8  940.21   171.9  939.94   176.9  939.84
     182  939.71   187.1  939.61   188.9  939.62   190.6   939.7   192.1  939.73
   200.2  940.16   207.3  940.45   208.7  940.47   210.7  940.42   215.1  940.52
   217.5  940.53   222.5  940.43   223.8  940.28   226.8  940.03   227.6  939.95