Geom Title=New Geometry

Storage Area=Perimeter 1,408818.7653747,1803257.0655808
Storage Area Surface Line=16
408226.8812279581804143.47130145
408492.0509771331805215.67941768
408814.8663239551804938.98054898
409241.4437465421804454.75752874
411109.1611102991804235.70425768
411777.8500430031803786.06859604
412469.5972147651802967.50110945
413184.4026255851802183.52098146
412146.7818679421801122.84198476
409529.671734776 1801768.4726784
407938.6532397241801975.99682993
406693.5083305521801618.59412452
405390.7178237331803382.54941251
404710.4997715011804846.74759274
406509.0424180821805273.32501533
408226.8812279581804143.47130145
Storage Area Is2D=-1
Storage Area Point Generation Data=,,200,200
Storage Area 2D Points=480
406410.4997715011805173.32501533405610.4997715011804973.32501533
405810.4997715011804973.32501533406010.4997715011804973.32501533
406210.4997715011804973.32501533406410.4997715011804973.32501533
406610.4997715011804973.32501533406810.4997715011804973.32501533
408610.4997715011804973.32501533404810.4997715011804773.32501533
405010.4997715011804773.32501533405210.4997715011804773.32501533
405410.4997715011804773.32501533405610.4997715011804773.32501533
405810.4997715011804773.32501533406010.4997715011804773.32501533
406210.4997715011804773.32501533406410.4997715011804773.32501533
406610.4997715011804773.32501533406810.4997715011804773.32501533
407010.4997715011804773.32501533408610.4997715011804773.32501533
408810.4997715011804773.32501533405010.4997715011804573.32501533
405210.4997715011804573.32501533405410.4997715011804573.32501533
405610.4997715011804573.32501533405810.4997715011804573.32501533
406010.4997715011804573.32501533406210.4997715011804573.32501533
406410.4997715011804573.32501533406610.4997715011804573.32501533
406810.4997715011804573.32501533407010.4997715011804573.32501533
407210.4997715011804573.32501533407410.4997715011804573.32501533
408410.4997715011804573.32501533408610.4997715011804573.32501533
408810.4997715011804573.32501533409010.4997715011804573.32501533
405010.4997715011804373.32501533405210.4997715011804373.32501533
405410.4997715011804373.32501533405610.4997715011804373.32501533
405810.4997715011804373.32501533406010.4997715011804373.32501533
406210.4997715011804373.32501533406410.4997715011804373.32501533
406610.4997715011804373.32501533406810.4997715011804373.32501533
407010.4997715011804373.32501533407210.4997715011804373.32501533
407410.4997715011804373.32501533407610.4997715011804373.32501533
408410.4997715011804373.32501533408610.4997715011804373.32501533
408810.4997715011804373.32501533409010.4997715011804373.32501533
409210.4997715011804373.32501533409410.4997715011804373.32501533
405210.4997715011804173.32501533405410.4997715011804173.32501533
405610.4997715011804173.32501533405810.4997715011804173.32501533
406010.4997715011804173.32501533406210.4997715011804173.32501533
406410.4997715011804173.32501533406610.4997715011804173.32501533
406810.4997715011804173.32501533407010.4997715011804173.32501533
407210.4997715011804173.32501533407410.4997715011804173.32501533
407610.4997715011804173.32501533407810.4997715011804173.32501533
408010.4997715011804173.32501533408410.4997715011804173.32501533
408610.4997715011804173.32501533408810.4997715011804173.32501533
409010.4997715011804173.32501533409210.4997715011804173.32501533
409410.4997715011804173.32501533409610.4997715011804173.32501533
409810.4997715011804173.32501533410010.4997715011804173.32501533
410210.4997715011804173.32501533410410.4997715011804173.32501533
410610.4997715011804173.32501533410810.4997715011804173.32501533
411010.4997715011804173.32501533405210.4997715011803973.32501533
405410.4997715011803973.32501533405610.4997715011803973.32501533
405810.4997715011803973.32501533406010.4997715011803973.32501533
406210.4997715011803973.32501533406410.4997715011803973.32501533
406610.4997715011803973.32501533406810.4997715011803973.32501533
407010.4997715011803973.32501533407210.4997715011803973.32501533
407410.4997715011803973.32501533407610.4997715011803973.32501533
407810.4997715011803973.32501533408010.4997715011803973.32501533
408210.4997715011803973.32501533408410.4997715011803973.32501533
408610.4997715011803973.32501533408810.4997715011803973.32501533
409010.4997715011803973.32501533409210.4997715011803973.32501533
409410.4997715011803973.32501533409610.4997715011803973.32501533
409810.4997715011803973.32501533410010.4997715011803973.32501533
410210.4997715011803973.32501533410410.4997715011803973.32501533
410610.4997715011803973.32501533410810.4997715011803973.32501533
411010.4997715011803973.32501533411210.4997715011803973.32501533
405410.4997715011803773.32501533405610.4997715011803773.32501533
405810.4997715011803773.32501533406010.4997715011803773.32501533
406210.4997715011803773.32501533406410.4997715011803773.32501533
406610.4997715011803773.32501533406810.4997715011803773.32501533
407010.4997715011803773.32501533407210.4997715011803773.32501533
407410.4997715011803773.32501533407610.4997715011803773.32501533
407810.4997715011803773.32501533408010.4997715011803773.32501533
408210.4997715011803773.32501533408410.4997715011803773.32501533
408610.4997715011803773.32501533408810.4997715011803773.32501533
409010.4997715011803773.32501533409210.4997715011803773.32501533
409410.4997715011803773.32501533409610.4997715011803773.32501533
409810.4997715011803773.32501533410010.4997715011803773.32501533
410210.4997715011803773.32501533410410.4997715011803773.32501533
410610.4997715011803773.32501533410810.4997715011803773.32501533
411010.4997715011803773.32501533411210.4997715011803773.32501533
411410.4997715011803773.32501533411610.4997715011803773.32501533
405410.4997715011803573.32501533405610.4997715011803573.32501533
405810.4997715011803573.32501533406010.4997715011803573.32501533
406210.4997715011803573.32501533406410.4997715011803573.32501533
406610.4997715011803573.32501533406810.4997715011803573.32501533
407010.4997715011803573.32501533407210.4997715011803573.32501533
407410.4997715011803573.32501533407610.4997715011803573.32501533
407810.4997715011803573.32501533408010.4997715011803573.32501533
408210.4997715011803573.32501533408410.4997715011803573.32501533
408610.4997715011803573.32501533408810.4997715011803573.32501533
409010.4997715011803573.32501533409210.4997715011803573.32501533
409410.4997715011803573.32501533409610.4997715011803573.32501533
409810.4997715011803573.32501533410010.4997715011803573.32501533
410210.4997715011803573.32501533410410.4997715011803573.32501533
410610.4997715011803573.32501533410810.4997715011803573.32501533
411010.4997715011803573.32501533411210.4997715011803573.32501533
411410.4997715011803573.32501533411610.4997715011803573.32501533
411810.4997715011803573.32501533405610.4997715011803373.32501533
405810.4997715011803373.32501533406010.4997715011803373.32501533
406210.4997715011803373.32501533406410.4997715011803373.32501533
406610.4997715011803373.32501533406810.4997715011803373.32501533
407010.4997715011803373.32501533407210.4997715011803373.32501533
407410.4997715011803373.32501533407610.4997715011803373.32501533
407810.4997715011803373.32501533408010.4997715011803373.32501533
408210.4997715011803373.32501533408410.4997715011803373.32501533
408610.4997715011803373.32501533408810.4997715011803373.32501533
409010.4997715011803373.32501533409210.4997715011803373.32501533
409410.4997715011803373.32501533409610.4997715011803373.32501533
409810.4997715011803373.32501533410010.4997715011803373.32501533
410210.4997715011803373.32501533410410.4997715011803373.32501533
410610.4997715011803373.32501533410810.4997715011803373.32501533
411010.4997715011803373.32501533411210.4997715011803373.32501533
411410.4997715011803373.32501533411610.4997715011803373.32501533
411810.4997715011803373.32501533412010.4997715011803373.32501533
405610.4997715011803173.32501533405810.4997715011803173.32501533
406010.4997715011803173.32501533406210.4997715011803173.32501533
406410.4997715011803173.32501533406610.4997715011803173.32501533
406810.4997715011803173.32501533407010.4997715011803173.32501533
407210.4997715011803173.32501533407410.4997715011803173.32501533
407610.4997715011803173.32501533407810.4997715011803173.32501533
408010.4997715011803173.32501533408210.4997715011803173.32501533
408410.4997715011803173.32501533408610.4997715011803173.32501533
408810.4997715011803173.32501533409010.4997715011803173.32501533
409210.4997715011803173.32501533409410.4997715011803173.32501533
409610.4997715011803173.32501533409810.4997715011803173.32501533
410010.4997715011803173.32501533410210.4997715011803173.32501533
410410.4997715011803173.32501533410610.4997715011803173.32501533
410810.4997715011803173.32501533411010.4997715011803173.32501533
411210.4997715011803173.32501533411410.4997715011803173.32501533
411610.4997715011803173.32501533411810.4997715011803173.32501533
412010.4997715011803173.32501533412210.4997715011803173.32501533
405810.4997715011802973.32501533406010.4997715011802973.32501533
406210.4997715011802973.32501533406410.4997715011802973.32501533
406610.4997715011802973.32501533406810.4997715011802973.32501533
407010.4997715011802973.32501533407210.4997715011802973.32501533
407410.4997715011802973.32501533407610.4997715011802973.32501533
407810.4997715011802973.32501533408010.4997715011802973.32501533
408210.4997715011802973.32501533408410.4997715011802973.32501533
408610.4997715011802973.32501533408810.4997715011802973.32501533
409010.4997715011802973.32501533409210.4997715011802973.32501533
409410.4997715011802973.32501533409610.4997715011802973.32501533
409810.4997715011802973.32501533410010.4997715011802973.32501533
410210.4997715011802973.32501533410410.4997715011802973.32501533
410610.4997715011802973.32501533410810.4997715011802973.32501533
411010.4997715011802973.32501533411210.4997715011802973.32501533
411410.4997715011802973.32501533411610.4997715011802973.32501533
411810.4997715011802973.32501533412010.4997715011802973.32501533
412210.4997715011802973.32501533406010.4997715011802773.32501533
406210.4997715011802773.32501533406410.4997715011802773.32501533
406610.4997715011802773.32501533406810.4997715011802773.32501533
407010.4997715011802773.32501533407210.4997715011802773.32501533
407410.4997715011802773.32501533407610.4997715011802773.32501533
407810.4997715011802773.32501533408010.4997715011802773.32501533
408210.4997715011802773.32501533408410.4997715011802773.32501533
408610.4997715011802773.32501533408810.4997715011802773.32501533
409010.4997715011802773.32501533409210.4997715011802773.32501533
409410.4997715011802773.32501533409610.4997715011802773.32501533
409810.4997715011802773.32501533410010.4997715011802773.32501533
410210.4997715011802773.32501533410410.4997715011802773.32501533
410610.4997715011802773.32501533410810.4997715011802773.32501533
411010.4997715011802773.32501533411210.4997715011802773.32501533
411410.4997715011802773.32501533411610.4997715011802773.32501533
411810.4997715011802773.32501533412010.4997715011802773.32501533
412210.4997715011802773.32501533412410.4997715011802773.32501533
406210.4997715011802573.32501533406410.4997715011802573.32501533
406610.4997715011802573.32501533406810.4997715011802573.32501533
407010.4997715011802573.32501533407210.4997715011802573.32501533
407410.4997715011802573.32501533407610.4997715011802573.32501533
407810.4997715011802573.32501533408010.4997715011802573.32501533
408210.4997715011802573.32501533408410.4997715011802573.32501533
408610.4997715011802573.32501533408810.4997715011802573.32501533
409010.4997715011802573.32501533409210.4997715011802573.32501533
409410.4997715011802573.32501533409610.4997715011802573.32501533
409810.4997715011802573.32501533410010.4997715011802573.32501533
410210.4997715011802573.32501533410410.4997715011802573.32501533
410610.4997715011802573.32501533410810.4997715011802573.32501533
411010.4997715011802573.32501533411210.4997715011802573.32501533
411410.4997715011802573.32501533411610.4997715011802573.32501533
411810.4997715011802573.32501533412010.4997715011802573.32501533
412210.4997715011802573.32501533412410.4997715011802573.32501533
412610.4997715011802573.32501533406210.4997715011802373.32501533
406410.4997715011802373.32501533406610.4997715011802373.32501533
406810.4997715011802373.32501533407010.4997715011802373.32501533
407210.4997715011802373.32501533407410.4997715011802373.32501533
407610.4997715011802373.32501533407810.4997715011802373.32501533
408010.4997715011802373.32501533408210.4997715011802373.32501533
408410.4997715011802373.32501533408610.4997715011802373.32501533
408810.4997715011802373.32501533409010.4997715011802373.32501533
409210.4997715011802373.32501533409410.4997715011802373.32501533
409610.4997715011802373.32501533409810.4997715011802373.32501533
410010.4997715011802373.32501533410210.4997715011802373.32501533
410410.4997715011802373.32501533410610.4997715011802373.32501533
410810.4997715011802373.32501533411010.4997715011802373.32501533
411210.4997715011802373.32501533411410.4997715011802373.32501533
411610.4997715011802373.32501533411810.4997715011802373.32501533
412010.4997715011802373.32501533412210.4997715011802373.32501533
412410.4997715011802373.32501533412610.4997715011802373.32501533
412810.4997715011802373.32501533406410.4997715011802173.32501533
406610.4997715011802173.32501533406810.4997715011802173.32501533
407010.4997715011802173.32501533407210.4997715011802173.32501533
407410.4997715011802173.32501533407610.4997715011802173.32501533
407810.4997715011802173.32501533408010.4997715011802173.32501533
408210.4997715011802173.32501533408410.4997715011802173.32501533
408610.4997715011802173.32501533408810.4997715011802173.32501533
409010.4997715011802173.32501533409210.4997715011802173.32501533
409410.4997715011802173.32501533409610.4997715011802173.32501533
409810.4997715011802173.32501533410010.4997715011802173.32501533
410210.4997715011802173.32501533410410.4997715011802173.32501533
410610.4997715011802173.32501533410810.4997715011802173.32501533
411010.4997715011802173.32501533411210.4997715011802173.32501533
411410.4997715011802173.32501533411610.4997715011802173.32501533
411810.4997715011802173.32501533412010.4997715011802173.32501533
412210.4997715011802173.32501533412410.4997715011802173.32501533
412610.4997715011802173.32501533412810.4997715011802173.32501533
413010.4997715011802173.32501533406610.4997715011801973.32501533
406810.4997715011801973.32501533407010.4997715011801973.32501533
407210.4997715011801973.32501533407410.4997715011801973.32501533
407610.4997715011801973.32501533408410.4997715011801973.32501533
408610.4997715011801973.32501533408810.4997715011801973.32501533
409010.4997715011801973.32501533409210.4997715011801973.32501533
409410.4997715011801973.32501533409610.4997715011801973.32501533
409810.4997715011801973.32501533410010.4997715011801973.32501533
410210.4997715011801973.32501533410410.4997715011801973.32501533
410610.4997715011801973.32501533410810.4997715011801973.32501533
411010.4997715011801973.32501533411210.4997715011801973.32501533
411410.4997715011801973.32501533411610.4997715011801973.32501533
411810.4997715011801973.32501533412010.4997715011801973.32501533
412210.4997715011801973.32501533412410.4997715011801973.32501533
412610.4997715011801973.32501533412810.4997715011801973.32501533
406810.4997715011801773.32501533407010.4997715011801773.32501533
409810.4997715011801773.32501533410010.4997715011801773.32501533
410210.4997715011801773.32501533410410.4997715011801773.32501533
410610.4997715011801773.32501533410810.4997715011801773.32501533
411010.4997715011801773.32501533411210.4997715011801773.32501533
411410.4997715011801773.32501533411610.4997715011801773.32501533
411810.4997715011801773.32501533412010.4997715011801773.32501533
412210.4997715011801773.32501533412410.4997715011801773.32501533
412610.4997715011801773.32501533410610.4997715011801573.32501533
410810.4997715011801573.32501533411010.4997715011801573.32501533
411210.4997715011801573.32501533411410.4997715011801573.32501533
411610.4997715011801573.32501533411810.4997715011801573.32501533
412010.4997715011801573.32501533412210.4997715011801573.32501533
412410.4997715011801573.32501533411410.4997715011801373.32501533
411610.4997715011801373.32501533411810.4997715011801373.32501533
412010.4997715011801373.32501533412210.4997715011801373.32501533

Storage Area=Storage Area 1,414530.2985725,1800306.8411726
Storage Area Surface Line=9
413675.1050109941800003.07740338
412290.846286846 1801084.7659146
413349.842032096 1802128.6331492
416481.4437359081799700.50719045
415800.6607568181798301.11995565
415021.542458527 1799163.4450625
415082.0565011131799836.66378627
414756.7935222141800230.00506307
413675.1050109941800003.07740338
Storage Area Vol Elev=65
935.0082       0935.1559 0.00757935.3712.2459891935.5029.4534731935.6396.8052924
935.80581.314038935.87261.605359936.03512.432568936.18773.371258 936.4685.591886
 936.6747.932903 936.83410.14036937.076114.44245937.206717.68597937.378422.88892
937.466125.98283937.595431.58239 937.80242.02135 938.09261.17934938.399288.16483
938.7112121.4782938.9803154.4529939.2906197.3085939.5598238.6538 939.835285.4657
940.0845332.3784940.4083400.1621940.6602460.5001940.8129501.4982941.0526572.1118
941.2488639.6453941.3917691.8609941.6768 808.436942.0286976.3386942.34381154.199
 942.6921381.505943.00471610.544943.3425  1886.9943.6564 2173.94944.01572541.282
944.3179  2879.1 944.668 3319.24944.97453747.441945.30444258.445945.61584805.288
945.86845304.504945.9671 5505.59946.30376291.967946.69187331.849946.9401 8067.87
947.27249151.045947.729710769.49948.335513121.92949.220216831.45950.180821093.29
951.195625756.41952.370231299.04 954.02839292.02955.354745801.38 956.78252930.69
959.385866272.61965.1794 96409.8970.1792122667.3975.1869149178.5976.1869154491.9
Storage Area Is2D=0

Connection=Storage Area 1 T,412717.4732846,1801601.3004452
Connection Line=2
 413276.635581821802137.40450334412158.3109874721801065.19638711
Connection Up SA=Perimeter 1
Connection Dn SA=Storage Area 1
Conn Weir SE=2
       0     952  1549.3     952

BC Line Name=BC Line 1
BC Line Storage Area=Storage Area 1
BC Line Arc=2
416520.9212186211799644.75499589 415856.84393373 1798275.0955958

BC Line Name=BC Line 2
BC Line Storage Area=Perimeter 1
BC Line Arc=2
408477.7107454891805291.95538777408879.2699786971805030.47495684
BC Line Text Position=408678.490362093,1805161.21517231
