Geom Title=New Geometry
Program Version=6.60
Viewing Rectangle=404119.978699145,417111.442290977,1805642.79837737,1797924.2526062

Storage Area=Storage Area 1,,
Storage Area Surface Line=9
413675.1050109941800003.07740338
412290.846286846 1801084.7659146
413349.842032096 1802128.6331492
416481.4437359081799700.50719045
415800.6607568181798301.11995565
415021.542458527 1799163.4450625
415082.0565011131799836.66378627
414756.7935222141800230.00506307
413675.1050109941800003.07740338
Storage Area Vol Elev=65
935.0082       0935.1559 0.00757935.3712.2459891935.5029.4534731935.6396.8052924
935.80581.314038935.87261.605359936.03512.432568936.18773.371258 936.4685.591886
 936.6747.932903 936.83410.14036937.076114.44245937.206717.68597937.378422.88892
937.466125.98283937.595431.58239 937.80242.02135 938.09261.17934938.399288.16483
938.7112121.4782938.9803154.4529939.2906197.3085939.5598238.6538 939.835285.4657
940.0845332.3784940.4083400.1621940.6602460.5001940.8129501.4982941.0526572.1118
941.2488639.6453941.3917691.8609941.6768 808.436942.0286976.3386942.34381154.199
 942.6921381.505943.00471610.544943.3425  1886.9943.6564 2173.94944.01572541.282
944.3179  2879.1 944.668 3319.24944.97453747.441945.30444258.445945.61584805.288
945.86845304.504945.9671 5505.59946.30376291.967946.69187331.849946.9401 8067.87
947.27249151.045947.729710769.49948.335513121.92949.220216831.45950.180821093.29
951.195625756.41952.370231299.04 954.02839292.02955.354745801.38 956.78252930.69
959.385866272.61965.1794 96409.8970.1792122667.3975.1869149178.5976.1869154491.9
Storage Area Is2D=0
Storage Area Mannings=0.06

Storage Area=Perimeter 1,,
Storage Area Surface Line=16
408226.8812279581804143.47130145
408492.0509771331805215.67941768
408814.8663239551804938.98054898
409241.4437465421804454.75752874
411109.1611102991804235.70425768
411777.8500430031803786.06859604
412469.5972147651802967.50110945
413184.4026255851802183.52098146
412146.7818679421801122.84198476
409529.671734776 1801768.4726784
407938.6532397241801975.99682993
406693.5083305521801618.59412452
405390.7178237331803382.54941251
404710.4997715011804846.74759274
406509.0424180821805273.32501533
408226.8812279581804143.47130145
Storage Area Type=1
Storage Area Area=
Storage Area Min Elev=
Storage Area Is2D=-1
Storage Area Point Generation Data=,,200,200
Storage Area 2D Points=480
406410.4997715011805173.32501533405610.4997715011804973.32501533
405810.4997715011804973.32501533406010.4997715011804973.32501533
406210.4997715011804973.32501533406410.4997715011804973.32501533
406610.4997715011804973.32501533406810.4997715011804973.32501533
408610.4997715011804973.32501533404810.4997715011804773.32501533
405010.4997715011804773.32501533405210.4997715011804773.32501533
405410.4997715011804773.32501533405610.4997715011804773.32501533
405810.4997715011804773.32501533406010.4997715011804773.32501533
406210.4997715011804773.32501533406410.4997715011804773.32501533
406610.4997715011804773.32501533406810.4997715011804773.32501533
407010.4997715011804773.32501533408610.4997715011804773.32501533
408810.4997715011804773.32501533405010.4997715011804573.32501533
405210.4997715011804573.32501533405410.4997715011804573.32501533
405610.4997715011804573.32501533405810.4997715011804573.32501533
406010.4997715011804573.32501533406210.4997715011804573.32501533
406410.4997715011804573.32501533406610.4997715011804573.32501533
406810.4997715011804573.32501533407010.4997715011804573.32501533
407210.4997715011804573.32501533407410.4997715011804573.32501533
408410.4997715011804573.32501533408610.4997715011804573.32501533
408810.4997715011804573.32501533409010.4997715011804573.32501533
405010.4997715011804373.32501533405210.4997715011804373.32501533
405410.4997715011804373.32501533405610.4997715011804373.32501533
405810.4997715011804373.32501533406010.4997715011804373.32501533
406210.4997715011804373.32501533406410.4997715011804373.32501533
406610.4997715011804373.32501533406810.4997715011804373.32501533
407010.4997715011804373.32501533407210.4997715011804373.32501533
407410.4997715011804373.32501533407610.4997715011804373.32501533
408410.4997715011804373.32501533408610.4997715011804373.32501533
408810.4997715011804373.32501533409010.4997715011804373.32501533
409210.4997715011804373.32501533409410.4997715011804373.32501533
405210.4997715011804173.32501533405410.4997715011804173.32501533
405610.4997715011804173.32501533405810.4997715011804173.32501533
406010.4997715011804173.32501533406210.4997715011804173.32501533
406410.4997715011804173.32501533406610.4997715011804173.32501533
406810.4997715011804173.32501533407010.4997715011804173.32501533
407210.4997715011804173.32501533407410.4997715011804173.32501533
407610.4997715011804173.32501533407810.4997715011804173.32501533
408010.4997715011804173.32501533408410.4997715011804173.32501533
408610.4997715011804173.32501533408810.4997715011804173.32501533
409010.4997715011804173.32501533409210.4997715011804173.32501533
409410.4997715011804173.32501533409610.4997715011804173.32501533
409810.4997715011804173.32501533410010.4997715011804173.32501533
410210.4997715011804173.32501533410410.4997715011804173.32501533
410610.4997715011804173.32501533410810.4997715011804173.32501533
411010.4997715011804173.32501533405210.4997715011803973.32501533
405410.4997715011803973.32501533405610.4997715011803973.32501533
405810.4997715011803973.32501533406010.4997715011803973.32501533
406210.4997715011803973.32501533406410.4997715011803973.32501533
406610.4997715011803973.32501533406810.4997715011803973.32501533
407010.4997715011803973.32501533407210.4997715011803973.32501533
407410.4997715011803973.32501533407610.4997715011803973.32501533
407810.4997715011803973.32501533408010.4997715011803973.32501533
408210.4997715011803973.32501533408410.4997715011803973.32501533
408610.4997715011803973.32501533408810.4997715011803973.32501533
409010.4997715011803973.32501533409210.4997715011803973.32501533
409410.4997715011803973.32501533409610.4997715011803973.32501533
409810.4997715011803973.32501533410010.4997715011803973.32501533
410210.4997715011803973.32501533410410.4997715011803973.32501533
410610.4997715011803973.32501533410810.4997715011803973.32501533
411010.4997715011803973.32501533411210.4997715011803973.32501533
405410.4997715011803773.32501533405610.4997715011803773.32501533
405810.4997715011803773.32501533406010.4997715011803773.32501533
406210.4997715011803773.32501533406410.4997715011803773.32501533
406610.4997715011803773.32501533406810.4997715011803773.32501533
407010.4997715011803773.32501533407210.4997715011803773.32501533
407410.4997715011803773.32501533407610.4997715011803773.32501533
407810.4997715011803773.32501533408010.4997715011803773.32501533
408210.4997715011803773.32501533408410.4997715011803773.32501533
408610.4997715011803773.32501533408810.4997715011803773.32501533
409010.4997715011803773.32501533409210.4997715011803773.32501533
409410.4997715011803773.32501533409610.4997715011803773.32501533
409810.4997715011803773.32501533410010.4997715011803773.32501533
410210.4997715011803773.32501533410410.4997715011803773.32501533
410610.4997715011803773.32501533410810.4997715011803773.32501533
411010.4997715011803773.32501533411210.4997715011803773.32501533
411410.4997715011803773.32501533411610.4997715011803773.32501533
405410.4997715011803573.32501533405610.4997715011803573.32501533
405810.4997715011803573.32501533406010.4997715011803573.32501533
406210.4997715011803573.32501533406410.4997715011803573.32501533
406610.4997715011803573.32501533406810.4997715011803573.32501533
407010.4997715011803573.32501533407210.4997715011803573.32501533
407410.4997715011803573.32501533407610.4997715011803573.32501533
407810.4997715011803573.32501533408010.4997715011803573.32501533
408210.4997715011803573.32501533408410.4997715011803573.32501533
408610.4997715011803573.32501533408810.4997715011803573.32501533
409010.4997715011803573.32501533409210.4997715011803573.32501533
409410.4997715011803573.32501533409610.4997715011803573.32501533
409810.4997715011803573.32501533410010.4997715011803573.32501533
410210.4997715011803573.32501533410410.4997715011803573.32501533
410610.4997715011803573.32501533410810.4997715011803573.32501533
411010.4997715011803573.32501533411210.4997715011803573.32501533
411410.4997715011803573.32501533411610.4997715011803573.32501533
411810.4997715011803573.32501533405610.4997715011803373.32501533
405810.4997715011803373.32501533406010.4997715011803373.32501533
406210.4997715011803373.32501533406410.4997715011803373.32501533
406610.4997715011803373.32501533406810.4997715011803373.32501533
407010.4997715011803373.32501533407210.4997715011803373.32501533
407410.4997715011803373.32501533407610.4997715011803373.32501533
407810.4997715011803373.32501533408010.4997715011803373.32501533
408210.4997715011803373.32501533408410.4997715011803373.32501533
408610.4997715011803373.32501533408810.4997715011803373.32501533
409010.4997715011803373.32501533409210.4997715011803373.32501533
409410.4997715011803373.32501533409610.4997715011803373.32501533
409810.4997715011803373.32501533410010.4997715011803373.32501533
410210.4997715011803373.32501533410410.4997715011803373.32501533
410610.4997715011803373.32501533410810.4997715011803373.32501533
411010.4997715011803373.32501533411210.4997715011803373.32501533
411410.4997715011803373.32501533411610.4997715011803373.32501533
411810.4997715011803373.32501533412010.4997715011803373.32501533
405610.4997715011803173.32501533405810.4997715011803173.32501533
406010.4997715011803173.32501533406210.4997715011803173.32501533
406410.4997715011803173.32501533406610.4997715011803173.32501533
406810.4997715011803173.32501533407010.4997715011803173.32501533
407210.4997715011803173.32501533407410.4997715011803173.32501533
407610.4997715011803173.32501533407810.4997715011803173.32501533
408010.4997715011803173.32501533408210.4997715011803173.32501533
408410.4997715011803173.32501533408610.4997715011803173.32501533
408810.4997715011803173.32501533409010.4997715011803173.32501533
409210.4997715011803173.32501533409410.4997715011803173.32501533
409610.4997715011803173.32501533409810.4997715011803173.32501533
410010.4997715011803173.32501533410210.4997715011803173.32501533
410410.4997715011803173.32501533410610.4997715011803173.32501533
410810.4997715011803173.32501533411010.4997715011803173.32501533
411210.4997715011803173.32501533411410.4997715011803173.32501533
411610.4997715011803173.32501533411810.4997715011803173.32501533
412010.4997715011803173.32501533412210.4997715011803173.32501533
405810.4997715011802973.32501533406010.4997715011802973.32501533
406210.4997715011802973.32501533406410.4997715011802973.32501533
406610.4997715011802973.32501533406810.4997715011802973.32501533
407010.4997715011802973.32501533407210.4997715011802973.32501533
407410.4997715011802973.32501533407610.4997715011802973.32501533
407810.4997715011802973.32501533408010.4997715011802973.32501533
408210.4997715011802973.32501533408410.4997715011802973.32501533
408610.4997715011802973.32501533408810.4997715011802973.32501533
409010.4997715011802973.32501533409210.4997715011802973.32501533
409410.4997715011802973.32501533409610.4997715011802973.32501533
409810.4997715011802973.32501533410010.4997715011802973.32501533
410210.4997715011802973.32501533410410.4997715011802973.32501533
410610.4997715011802973.32501533410810.4997715011802973.32501533
411010.4997715011802973.32501533411210.4997715011802973.32501533
411410.4997715011802973.32501533411610.4997715011802973.32501533
411810.4997715011802973.32501533412010.4997715011802973.32501533
412210.4997715011802973.32501533406010.4997715011802773.32501533
406210.4997715011802773.32501533406410.4997715011802773.32501533
406610.4997715011802773.32501533406810.4997715011802773.32501533
407010.4997715011802773.32501533407210.4997715011802773.32501533
407410.4997715011802773.32501533407610.4997715011802773.32501533
407810.4997715011802773.32501533408010.4997715011802773.32501533
408210.4997715011802773.32501533408410.4997715011802773.32501533
408610.4997715011802773.32501533408810.4997715011802773.32501533
409010.4997715011802773.32501533409210.4997715011802773.32501533
409410.4997715011802773.32501533409610.4997715011802773.32501533
409810.4997715011802773.32501533410010.4997715011802773.32501533
410210.4997715011802773.32501533410410.4997715011802773.32501533
410610.4997715011802773.32501533410810.4997715011802773.32501533
411010.4997715011802773.32501533411210.4997715011802773.32501533
411410.4997715011802773.32501533411610.4997715011802773.32501533
411810.4997715011802773.32501533412010.4997715011802773.32501533
412210.4997715011802773.32501533412410.4997715011802773.32501533
406210.4997715011802573.32501533406410.4997715011802573.32501533
406610.4997715011802573.32501533406810.4997715011802573.32501533
407010.4997715011802573.32501533407210.4997715011802573.32501533
407410.4997715011802573.32501533407610.4997715011802573.32501533
407810.4997715011802573.32501533408010.4997715011802573.32501533
408210.4997715011802573.32501533408410.4997715011802573.32501533
408610.4997715011802573.32501533408810.4997715011802573.32501533
409010.4997715011802573.32501533409210.4997715011802573.32501533
409410.4997715011802573.32501533409610.4997715011802573.32501533
409810.4997715011802573.32501533410010.4997715011802573.32501533
410210.4997715011802573.32501533410410.4997715011802573.32501533
410610.4997715011802573.32501533410810.4997715011802573.32501533
411010.4997715011802573.32501533411210.4997715011802573.32501533
411410.4997715011802573.32501533411610.4997715011802573.32501533
411810.4997715011802573.32501533412010.4997715011802573.32501533
412210.4997715011802573.32501533412410.4997715011802573.32501533
412610.4997715011802573.32501533406210.4997715011802373.32501533
406410.4997715011802373.32501533406610.4997715011802373.32501533
406810.4997715011802373.32501533407010.4997715011802373.32501533
407210.4997715011802373.32501533407410.4997715011802373.32501533
407610.4997715011802373.32501533407810.4997715011802373.32501533
408010.4997715011802373.32501533408210.4997715011802373.32501533
408410.4997715011802373.32501533408610.4997715011802373.32501533
408810.4997715011802373.32501533409010.4997715011802373.32501533
409210.4997715011802373.32501533409410.4997715011802373.32501533
409610.4997715011802373.32501533409810.4997715011802373.32501533
410010.4997715011802373.32501533410210.4997715011802373.32501533
410410.4997715011802373.32501533410610.4997715011802373.32501533
410810.4997715011802373.32501533411010.4997715011802373.32501533
411210.4997715011802373.32501533411410.4997715011802373.32501533
411610.4997715011802373.32501533411810.4997715011802373.32501533
412010.4997715011802373.32501533412210.4997715011802373.32501533
412410.4997715011802373.32501533412610.4997715011802373.32501533
412810.4997715011802373.32501533406410.4997715011802173.32501533
406610.4997715011802173.32501533406810.4997715011802173.32501533
407010.4997715011802173.32501533407210.4997715011802173.32501533
407410.4997715011802173.32501533407610.4997715011802173.32501533
407810.4997715011802173.32501533408010.4997715011802173.32501533
408210.4997715011802173.32501533408410.4997715011802173.32501533
408610.4997715011802173.32501533408810.4997715011802173.32501533
409010.4997715011802173.32501533409210.4997715011802173.32501533
409410.4997715011802173.32501533409610.4997715011802173.32501533
409810.4997715011802173.32501533410010.4997715011802173.32501533
410210.4997715011802173.32501533410410.4997715011802173.32501533
410610.4997715011802173.32501533410810.4997715011802173.32501533
411010.4997715011802173.32501533411210.4997715011802173.32501533
411410.4997715011802173.32501533411610.4997715011802173.32501533
411810.4997715011802173.32501533412010.4997715011802173.32501533
412210.4997715011802173.32501533412410.4997715011802173.32501533
412610.4997715011802173.32501533412810.4997715011802173.32501533
413010.4997715011802173.32501533406610.4997715011801973.32501533
406810.4997715011801973.32501533407010.4997715011801973.32501533
407210.4997715011801973.32501533407410.4997715011801973.32501533
407610.4997715011801973.32501533408410.4997715011801973.32501533
408610.4997715011801973.32501533408810.4997715011801973.32501533
409010.4997715011801973.32501533409210.4997715011801973.32501533
409410.4997715011801973.32501533409610.4997715011801973.32501533
409810.4997715011801973.32501533410010.4997715011801973.32501533
410210.4997715011801973.32501533410410.4997715011801973.32501533
410610.4997715011801973.32501533410810.4997715011801973.32501533
411010.4997715011801973.32501533411210.4997715011801973.32501533
411410.4997715011801973.32501533411610.4997715011801973.32501533
411810.4997715011801973.32501533412010.4997715011801973.32501533
412210.4997715011801973.32501533412410.4997715011801973.32501533
412610.4997715011801973.32501533412810.4997715011801973.32501533
406810.4997715011801773.32501533407010.4997715011801773.32501533
409810.4997715011801773.32501533410010.4997715011801773.32501533
410210.4997715011801773.32501533410410.4997715011801773.32501533
410610.4997715011801773.32501533410810.4997715011801773.32501533
411010.4997715011801773.32501533411210.4997715011801773.32501533
411410.4997715011801773.32501533411610.4997715011801773.32501533
411810.4997715011801773.32501533412010.4997715011801773.32501533
412210.4997715011801773.32501533412410.4997715011801773.32501533
412610.4997715011801773.32501533410610.4997715011801573.32501533
410810.4997715011801573.32501533411010.4997715011801573.32501533
411210.4997715011801573.32501533411410.4997715011801573.32501533
411610.4997715011801573.32501533411810.4997715011801573.32501533
412010.4997715011801573.32501533412210.4997715011801573.32501533
412410.4997715011801573.32501533411410.4997715011801373.32501533
411610.4997715011801373.32501533411810.4997715011801373.32501533
412010.4997715011801373.32501533412210.4997715011801373.32501533
Storage Area 2D PointsPerimeterTime=10Apr2026 00:18:28
Storage Area Mannings=0.06
2D Cell Volume Filter Tolerance=0.003
2D Cell Minimum Area Fraction=0.01
2D Face Profile Filter Tolerance=0.003
2D Face Area Elevation Profile Filter Tolerance=0.003
2D Face Area Elevation Conveyance Ratio=0.02
2D Face Min Length Ratio=0.05
2D Face Area Laminar Depth=0.06
2D Multiple Face Mann n=0
2D Composite LC=0

Connection=Storage Area 1 T,0,0
Connection Desc=
Connection Line=2
 413276.635581821802137.40450334412158.3109874721801065.19638711
Connection Centerline Profile=0
Connection Last Edited Time=Apr/09/2026 23:42:17
Conn Near Repeats=0
Conn Protection Radius=-1
Connection Up SA=Perimeter 1
Connection Dn SA=Storage Area 1
Conn Routing Type=1
Conn Use RC Family=False
Conn OverFlow Method 2D=False
Conn Weir WD=200
Conn Weir Coef=1.66
Conn Weir Is Ogee=0
Conn Simple Spill Pos Coef=0.05
Conn Simple Spill Neg Coef=0.05
Conn Weir SE=450
       0  952.97     1.9  952.88     8.7   952.9    12.5   952.8      16  952.88
    22.6  952.61    29.5  952.62    33.7   952.5    36.4  952.56    40.8   952.5
    43.3  952.56    45.3  952.56    47.8   952.5    50.3  952.56    52.5  952.56
    58.5  952.25    65.5  952.19    69.1  951.95    72.6  951.87    76.1  951.61
      78  951.56    81.4  951.56    84.9  951.41    86.7  951.29    88.7  951.25
    91.8   951.1    93.8  951.05    97.4  951.15   104.4  950.88     108  950.96
   112.6  950.81   124.8  950.83   126.5  950.91   129.2  950.97   132.7  950.89
   147.2  951.56   153.9  951.57   157.5  951.82     161  951.91   164.5  952.14
   171.6   952.3   175.2  952.56   189.8  952.56     197  952.88   237.3  952.88
   244.2  952.56   245.9   952.6     253  952.52   254.8  952.38   258.1  952.22
   278.9  952.22   285.8  951.91   305.4  951.91   309.5  952.02   313.1  951.93
   313.5  951.94   316.6  952.01   319.9  951.93   323.7     952   327.2  951.92
   330.8  951.99   334.3  951.91   337.8  951.98   341.4   951.9   344.9  951.98
   348.4   951.9     355  952.18     359   952.1   363.2  952.22   369.7   952.2
   376.7   952.5   380.3   952.4   382.8  952.46   383.8  952.46   384.9  952.46
   387.3  952.39   390.9  952.45   392.1  952.44   394.4  952.38   397.9  952.43
   401.5  952.37   403.5  952.42   406.6  952.41   408.6  952.36   412.1  952.41
   415.6  952.35   419.2  952.39     421  952.38   422.7  952.34   428.2  952.56
   431.2  952.56   436.8  952.32   440.4   952.4   442.7  952.34   445.1  952.22
   457.1  952.22   464.4  952.56   468.7  952.49   472.2  952.58   479.7  952.22
   500.5  952.22     504  952.14   507.7  952.21   511.1  952.13   514.4  952.19
   514.6   952.2   518.2  952.12   521.7  952.19   525.2  952.11   529.4  952.17
   535.1  951.91   542.1  951.91   543.8  951.82     549  951.34     550  951.27
   565.5  951.25   571.2  950.98   574.8  950.82   578.3   950.7     580  950.74
   583.6  950.91   588.9  950.87   590.6  950.91   594.4  950.91     596  950.84
   597.5  950.77   599.5  950.73   604.4  950.79   606.6  950.64   608.8  950.59
   611.3  950.48   613.7  950.31   617.2   950.2   618.3  950.16   620.7  949.99
   623.3  949.94     646  949.94   652.2  950.22   666.7  950.24   669.3  950.32
   670.2  950.35   673.7  950.59   673.8   950.6   677.3  950.53   684.4  950.69
   688.3  950.95   691.5  951.03   695.5   951.3   698.5   951.3   701.4  951.31
   702.1  951.31   702.8  951.38     710  952.38   716.2  952.97   722.2  953.32
   726.8  954.25   731.7  954.56   737.4  955.42   738.9  955.59   744.5  956.64
   751.6  957.32   755.1  957.69   756.8  957.81   760.6  957.98   762.2  958.02
   763.7  958.12   767.8  958.51   770.7  958.66   776.3  958.69   782.2  959.01
   786.9  959.02   789.5  959.25   790.5  959.39   791.4  959.53   798.4  960.17
   801.1   960.3   803.9  960.44   818.4  960.44   819.1  960.44   826.1  960.75
     840  960.75   847.1  960.45   850.6  960.46   853.8  960.47   857.7   960.4
   861.7  960.48   868.3  960.17   871.8   960.1   876.2  960.17   878.9  960.06
   881.5  960.18   882.4  960.21   883.4  960.27   888.4  960.29   889.5  960.25
   890.6   960.3     893  960.31   895.3  960.32   900.1  960.12   903.6  960.26
   905.1  960.36   910.7  960.31   914.2  960.44   916.1  960.58   919.5  960.59
   921.3  960.47     923  960.43   924.9  960.31   926.7  960.28   928.4  960.17
     930  960.14   931.9  960.01   936.9  959.97     939  959.88   941.2  959.78
   942.5  959.66   943.8  959.66   948.4  959.44   949.6  959.27   950.8  959.22
   953.1  958.95   955.6  958.78   962.9  957.81   967.3  957.07   970.1  956.75
   974.4  955.91   977.3  955.45   977.9  955.31   978.5  955.19   981.4  954.59
   984.5  954.11   985.4  953.95   988.5  953.48   991.8  953.14     992  953.12
   995.6  952.88     999  952.83   999.1  952.83  1006.2  952.88  1009.7  952.83
  1013.4  952.94  1016.8  952.82  1020.3  952.69  1023.9  952.81  1027.4  952.76
  1030.9  953.02  1033.9  953.38  1035.1  953.45    1038   953.6  1040.8  953.74
  1041.6  953.76  1045.1  954.03  1047.7  954.35  1049.6  954.45  1052.2   954.3
  1054.7  954.26  1055.7  954.19  1056.8  954.17  1059.2  954.02  1061.6  953.76
  1062.8  953.55  1066.3  953.19  1068.5  953.06  1071.2  952.82  1073.4  952.68
  1075.4  952.64  1076.9  952.61  1078.5  952.65  1080.5  952.58  1085.7  952.37
  1087.5  952.34  1089.3  952.39  1091.1  952.36  1092.9  952.41  1098.1  952.15
  1101.7  952.11  1103.1  952.01  1105.2  951.98  1107.4  952.05  1108.7  952.09
  1110.1  952.07  1112.3  951.93  1114.6  951.88  1115.8  951.86  1119.4  951.63
  1126.4  951.62    1129  951.64    1130  951.65  1133.5  951.66    1137  951.69
  1137.8   951.7  1140.6  951.57  1143.5  951.45  1144.1  951.41  1144.7   951.4
  1158.6  951.48  1161.8  951.42  1165.2  951.52  1165.5  951.52  1172.4  951.25
  1173.2  951.21  1179.5  950.94  1179.6  950.93    1183  950.72  1186.8  950.65
  1190.1  950.36  1193.6  950.08  1197.2     950  1200.1   949.8  1200.7  949.81
  1201.3  949.81  1204.2  950.04  1207.8  950.21  1208.5  950.28  1211.3  950.74
    1214  951.07  1214.8  951.21  1215.7   951.4  1218.4  951.98  1221.9  952.58
    1223   952.8  1225.4   953.4  1227.8  953.98    1229  954.09  1232.5  954.42
  1234.8  954.84    1236  954.97  1237.4  955.09  1239.6  955.15  1241.7  955.31
  1243.1  955.32  1248.6  955.33  1251.9  955.33  1253.7  955.29  1255.5  955.34
  1257.3  955.35  1259.1  955.35  1260.8  955.31  1262.5  955.35  1264.3  955.36
  1267.9  955.33  1271.4  955.37    1288   955.4  1290.2   955.3  1292.6  955.25
  1296.2  955.37  1297.1  955.42  1303.2  955.41    1304  955.43  1306.8  955.51
  1309.6  955.72  1310.3  955.72  1310.9  955.73  1313.8  955.53  1316.9  955.45
  1320.9  955.18  1324.1  955.12  1324.5   955.1  1324.8  955.09    1328  954.95
  1331.7  955.13  1335.1  955.07  1338.6  955.17  1345.6  955.21  1345.8  955.21
  1349.2  954.91  1359.4  954.02  1359.8  953.97  1363.4   953.2  1366.9  952.74
  1367.4  952.71  1370.4  952.72  1373.3  952.75    1374  952.74  1374.7  952.76
  1377.5  952.89  1380.2  953.03    1381  953.05  1381.9  953.12  1384.6   953.2
  1387.1   953.4  1388.1  953.42  1394.1  953.74  1395.2  953.74  1398.7  953.76
    1401  953.99  1403.6  954.12  1405.8  954.07  1407.9  954.14  1409.3  954.17
  1412.9  954.33  1421.8  954.85  1425.2  954.86    1427  954.74  1428.7  954.71
  1430.5  954.63  1432.5  954.54  1434.1  954.52  1435.6  954.56  1437.6  954.56
  1439.7  954.57  1441.2  954.48  1442.6  954.46  1448.2  954.26  1449.5   954.3
  1451.8  954.36  1454.1  954.32  1455.3  954.35  1456.4  954.42  1461.4  954.66
  1462.4  954.59  1465.9  954.48  1468.6  954.61  1469.4  954.57  1470.3  954.54
  1475.8  954.06  1476.5  953.97  1477.2  953.88  1480.1  953.57    1483  953.38
  1490.3   952.8  1490.7  952.82    1491  952.84  1494.2  952.93  1497.5  952.85
    1498  952.83  1501.3   952.7  1504.7  952.55  1504.8  952.55  1504.9  952.55
  1508.3  952.39  1509.2  952.35  1511.8  952.23  1511.9  952.23  1515.4  952.33
    1519  952.25  1522.5  952.35    1526  952.28  1526.4  952.29  1529.6  952.37
  1532.6  952.31  1536.6  952.22  1539.5  952.02  1540.2  952.01  1540.8  952.03
  1543.7   952.1  1546.5  952.05  1547.2  952.02  1548.1  951.98  1549.3  951.95

BC Line Name=BC Line 1
BC Line Storage Area=Storage Area 1
BC Line Arc=2
416520.9212186211799644.75499589 415856.84393373 1798275.0955958
BC Line Text Position=1.79769313486232E+308,1.79769313486232E+308
BC Line Name=BC Line 2
BC Line Storage Area=Perimeter 1
BC Line Arc=2
408477.7107454891805291.95538777408879.2699786971805030.47495684

Use User Specified Reach Order=0
GIS Ratio Cuts To Invert=-1
GIS Limit At Bridges=0
Composite Channel Slope=5
