Geom Title=New Geometry
Program Version=6.60
Viewing Rectangle=403417.567895296,410708.72756569,1805776.23975116,1800800.36445063
