Geom Title=New Geometry
Program Version=6.60
Viewing Rectangle=403297.28732086,410999.894330608,1805776.23975116,1800800.36445063

River Reach=River 1,Reach 1
Reach XY=20
410649.775830165 1803237.3139959409900.041827137  1802778.738829
409274.0503294631802858.80750894408706.2905990151803506.63591932
408043.9042468251804096.23256248407716.3505561821804314.60168957
407381.5178946361804758.61891467406486.2044735441805093.45157621
 405860.212975871805158.96231434405299.7322163251805042.49877989
404964.8995547791804816.85068189404877.5519039411804562.08670028
404892.1098457471804198.13815512405365.2429544541803120.85046145
405583.6120815491802844.24956713405620.0069360651802516.69587649
405256.0583909061802116.35247681 404899.388816651801876.14643701
404346.1870280081801694.17216443403647.4058213031801752.40393165
Rch Text X Y=408899.1833279,1802866.0864798
Reverse River Text=0

Type RM Length L Ch R=1,11000,1000,1000,1000
XS GIS Cut Line=2
410320.5112128541802744.00682663410098.2970048191803191.91401093
Node Last Edited Time=Apr/01/2026 19:32:50
#Sta/Elev=110
       0  942.72     1.6   942.7     4.1  942.78     5.4  942.83     9.1  942.83
    12.8  943.01    15.2  943.01    16.6  942.99      19  943.06    30.2  943.06
    34.1  943.28    35.2  943.33    37.4  943.33    38.9  943.31    41.3  943.38
    45.4  943.38    46.4  943.36    46.9  943.38    50.1  943.31    53.9   943.1
    56.6  943.06    58.1  943.06    59.5  943.02    61.3  942.99    63.7  942.85
    69.2  942.36    74.8  941.54    79.1  941.17      80  941.13    80.4  941.09
      86  940.75    87.4  940.62    91.2  940.13    91.6  940.09    97.2  939.78
    97.9 939.715    98.6  939.65   102.4  939.16   106.1  938.86   109.8  938.42
   112.9  938.19   113.9   938.1   119.5  937.29     121  937.11   124.8  936.51
     126  936.25   128.5   935.7   130.6  935.32   136.2  934.19   137.1  934.09
   139.7  933.75   141.8  933.56   146.6  933.27   147.1  933.23   147.4  933.22
     153  932.91   169.7  932.91   173.2  932.84   175.3  932.72   180.4  932.56
   264.6  932.56   270.2  932.25     326  932.25   326.2  932.26   331.6  932.56
   348.3  932.56   348.6  932.58   349.1  932.61   352.3  932.86   356.1  932.97
   359.8  933.22   360.4  933.27   363.5  933.61   365.1  933.84   367.2  934.22
   370.6  934.82   374.7  935.81   378.4   936.9   380.8  937.47   381.8  937.75
   382.2  937.85   382.9  938.06   385.9     939   387.4  939.39   389.6  939.98
   392.8940.7047     393  940.75   394.1  940.92   398.6  941.56   400.8  942.02
   404.1  942.71   409.7  944.32     412  944.85   415.3  945.61   415.7  945.69
   416.6  945.77   419.5  945.99   420.9  946.03   425.1  946.27   426.5  946.34
   439.1  946.34   441.9  946.39   443.2  946.47   445.6  946.61   447.2  946.64
   448.8  946.69   495.4  946.69   497.8  946.65     499  946.58     500  946.52
#Mann=1,-1,0
       0    0.07       0
Bank Sta=97.9,392.8
XS Rating Curve=0,0
XS HTab Starting El and Incr=932.4,0.3,48
XS HTab Horizontal Distribution=5,5,5
Exp/Cntr(USF)=0,0
Exp/Cntr=0.3,0.1

Type RM Length L Ch R=1,10000,1000,1000,1000
XS GIS Cut Line=2
409151.3961153961802643.40163822409388.4449825221803083.63775055
Node Last Edited Time=Apr/01/2026 19:32:50
#Sta/Elev=171
       0  941.75     8.7  941.75    12.2   941.9    14.4   941.9    18.9  941.75
      20  941.75    21.4  941.79    23.3  941.88    25.7  941.87    29.4  941.75
    48.4  941.75    49.2  941.77    50.5  941.75    82.2  941.75    92.7  941.44
    93.5   941.4    95.2  941.24    97.1  941.03    99.5  940.89   100.8  940.74
   103.1940.3812   103.3  940.35   105.2     940   107.5  939.53   108.2  939.39
   110.9  938.74   111.9  938.44   113.8   937.8   122.3  934.79     123  934.55
   124.3  934.17   126.7   933.6   127.9  933.34   133.6  932.33   134.1  932.27
   134.9  932.17     145  931.27   145.1  931.26   148.8   931.2   150.6   931.1
   156.2  930.59   159.9  930.34     162  930.28   166.5  930.28   167.3  930.26
   167.7  930.24     171  930.01   173.4  929.94   177.1  929.94   178.4   929.9
     179  929.88     182  929.86   184.7  929.94   185.7  929.94   187.6  929.94
   189.4  929.91   190.4  929.94   198.2  929.94   200.5   929.9   201.8  929.83
   207.4  929.66   207.9  929.66   211.6  929.81   215.3   929.8   218.8  929.94
     219  929.94   219.3  929.94   224.5  929.78   226.3  929.78   229.8  929.92
   241.1  930.22   241.5  930.21   242.8   930.2   247.2  930.17   250.9  930.16
   252.2  930.14   255.9  929.89   258.5  929.81   259.6  929.83   261.4  929.79
   263.3   929.8   266.9  929.68   269.9  929.48   270.6  929.45     272  929.41
   274.3  929.44   275.6   929.4   281.3  929.36   281.7  929.39   282.5  929.43
   285.4  929.63   286.9  929.66   289.1  929.66   292.1  929.66   292.8  929.67
   293.1  929.68   298.3  930.11   300.2  930.32   307.5  930.83   309.7  931.07
   311.2  931.34   314.2  931.71   314.9  931.79   315.3  931.83     321  932.79
   322.3  933.09   324.7  933.65     326  933.96   326.7   934.1   329.7  934.95
   332.4  935.71   335.3  936.88   337.1  937.65     338  938.07   340.8  939.16
   343.7  940.26   355.1   944.8   355.5  944.95   356.4  945.24   360.8  946.45
   362.9  946.75   365.9  947.29   366.4  947.39   366.6  947.42   366.9  947.48
   370.3  948.08   372.1  948.32     374  948.47   377.8  948.94   378.2  948.97
   381.4  949.23   383.5   949.4   385.1  949.48   389.2  949.86   390.5  949.93
   392.4     950   394.8   950.2   396.1  950.16   398.6  950.17   399.8  950.16
   400.5  950.22   417.5  950.69   423.2  950.51   425.7   950.5   427.4  950.58
   428.9  950.62   430.2  950.62   434.6  950.48   436.7  950.35   444.1  950.23
   445.9  950.13   447.7950.0258   447.8  950.02   451.3  949.97   457.3  949.77
   462.6   949.3     463  949.28   474.3  948.91   476.6  948.71   477.3  948.65
     480  948.41     481  948.37   482.9  948.31   484.7  948.26   485.7  948.23
   488.4  947.99   488.9  947.95   491.4  947.72   492.1   947.7   495.8  947.59
     500  947.46
#Mann=1,-1,0
       0    0.07       0
Bank Sta=103.1,447.7
XS Rating Curve=0,0
XS HTab Starting El and Incr=929.51,0.3,71
XS HTab Horizontal Distribution=5,5,5
Exp/Cntr(USF)=0,0
Exp/Cntr=0.3,0.1

Type RM Length L Ch R=1,9000,1000,1000,1000
XS GIS Cut Line=2
408423.8274299041803423.69095206408772.3567596421803782.19800403
Node Last Edited Time=Apr/01/2026 19:32:50
#Sta/Elev=77
       0  945.25     2.7  945.04     3.3  945.03    10.2  945.03    13.3  944.96
    16.9  944.73    17.2  944.72    24.2  944.72    27.5  944.64    31.2  944.38
    38.1  944.38    41.6   944.3    45.2  944.06    59.3  944.06    62.8   943.8
      66  943.72    66.4  943.72    66.7  943.72    69.9  943.65    73.5  943.42
      77     943    80.5  942.42    84.1  941.69      87  940.96    87.6  940.78
    88.3  940.59    91.1  939.72    93.9  938.74   102.6  935.94   105.3  935.25
   108.8  934.51   111.6 933.798   112.3  933.62   114.9   933.1     117   932.8
   135.8  931.07   137.1  930.97   138.5  930.94   177.6  930.94   184.6  930.62
   367.7  930.62   379.8  930.62   381.1  930.59   382.4  930.62   396.7  930.62
     411  931.25   414.7  931.43   418.2  931.75     420  931.87   421.7  931.91
   428.7  931.91   430.6  931.95   432.6   932.1   435.6  932.38   439.7  932.56
   441.2  932.56   442.6  932.56   446.9  932.56   448.3  932.59   449.6  932.69
   451.8  932.85   454.1  932.91   455.3  932.93   456.5  933.01   461.3  933.22
   462.4  933.25   463.5  933.33   465.9  933.44   468.4  933.56   469.5  933.59
   470.5  933.65   484.4  934.29   491.4  934.94   497.1  935.19   497.8  935.19
   498.4  935.19     500  935.23
#Mann=1,-1,0
       0    0.07       0
Bank Sta=111.6,367.7
XS Rating Curve=0,0
XS HTab Starting El and Incr=930.7401,0.3,48
XS HTab Horizontal Distribution=5,5,5
Exp/Cntr(USF)=0,0
Exp/Cntr=0.3,0.1

Type RM Length L Ch R=6,8926,,,
Node Name=bank
Node Last Edited Time=Feb/03/2026 19:15:02
Lateral Weir Pos=0
Lateral Weir End=,,,Perimeter 1
Lateral Weir Distance=0
Lateral Weir TW Multiple XS=0
Lateral Weir WD=100
Lateral Weir Coef=1.1
LW OverFlow Method 2D=0
LW OverFlow Use Velocity Into 2D=0
Lateral Weir WSCriteria=0
Lateral Weir Flap Gates=0
Lateral Weir Hagers EQN=0,,,,,
Lateral Weir SS=0.05,0.05,
Lateral Weir Type=0
Lateral Weir Connection Pos and Dist=0,
Lateral Weir SE=359
       0   937.5    24.5   937.5      30  937.19    51.8  937.19    57.2  936.84
    68.1  936.84    73.5  936.53    84.4  936.53    91.3  936.23   100.7  936.19
   102.7  936.07105.5156935.7046  114.62935.7046  114.62935.0854     118  934.91
   122.5  934.49   133.4  933.87   138.8  933.24   149.7  932.68   155.2  932.08
   160.6  931.73   167.4  931.61   171.5  931.85     177  931.28   182.7  930.99
   197.9  931.47   204.2  931.06   209.6  930.91211.1577930.7785  219.65930.7785
  219.65930.0617   220.5  929.99   225.9  929.18   231.4  928.72   235.9  928.08
   242.3  927.45   246.5  927.08246.7244 927.067  257.73 927.067  257.73926.7039
   269.5  926.74     274  926.37   285.8  925.69     293  926.08   307.6  925.69
   318.5  924.82323.3695924.0625348.3044924.0625   350.1  924.34   356.6  925.01
   361.5  925.79   367.5  926.41   385.6  927.34   400.1  928.78   403.4  928.71
   407.2   928.8     411  928.96   416.5   929.4     449  929.61   454.6  929.48
   476.3  930.23   481.8  930.09   487.2  930.27   509.9  930.37   513.7  930.56
   519.9  930.62   525.8  930.96   530.8  931.45   536.2  931.59   547.1  931.59
   552.5  931.94   568.9  931.94     588  932.91   593.7  932.98     607  933.56
   612.4  933.56   617.9  933.91   635.5  933.94   645.1  934.72     656     935
   661.4  935.47     666  935.56   677.7  936.19   694.1  936.22   699.5  936.53
   732.2  936.53   748.5  936.88   851.9  936.88   857.4  936.53   895.4  936.53
   904.7  936.22   976.7  936.22   982.3  935.88   993.8  935.85  1003.8  935.22
  1009.1  935.22  1014.6  934.91  1025.4  934.25  1043.5  932.111056.988931.3125
  1100.2931.3125  1100.2930.3125 1161.17930.3125 1161.17  929.66    1177  929.66
  1182.5  929.31  1188.8  929.29  1193.3     929  1198.7     929  1204.2  928.66
    1215  928.66  1220.4  928.34    1227   928.3  1231.2     928    1242     928
1244.454927.8617 1316.48927.8617 1316.48927.68751399.061927.6875  1399.1  927.69
  1415.3  927.69  1420.7     928 1424.62928.0094 1424.62928.6875 1467.59928.6875
 1467.59  928.34  1469.5  928.34  1474.9   928.4  1480.3  928.59  1487.1  928.46
  1491.2  928.641515.641928.0313  1640.9928.0313 1697.41928.03131839.659928.0313
 1842.48928.2231 1842.48     929 1942.53     929 1942.53929.6563 2042.57929.6563
 2142.62929.6563 2242.67929.6563  2305.3929.6563 2400.15929.6563 2400.15     930
 2454.08     930 2454.08930.3125 2623.76930.3125 2623.76930.6563 2677.69930.6563
 2828.64930.6563 2928.65930.6563 2928.65930.3125 3028.65930.3125 3028.65930.4826
 3128.65930.4826 3128.65930.3125 3228.66930.3125 3328.66930.3125 3328.66930.9688
3416.692930.9688  3418.5  931.03  3419.3  931.03  3421.4   931.1  3426.4  931.42
  3428.4  931.62  3429.4  931.69  3431.4  931.89  3434.4  932.07  3436.4   932.2
  3438.3  932.45  3439.4  932.59  3441.4  932.85  3443.3  932.98  3444.5  933.06
  3446.4  933.19  3448.3  933.43  3449.5  933.59  3451.4  933.84  3456.4  934.15
  3458.2  934.38  3459.6  934.56  3466.4  935.34  3491.4  936.97  3496.4  936.97
  3497.9  937.07  3501.4  937.29  3502.8  937.34  3506.6  937.53  3522.7  937.16
    3528  937.37  3549.4  936.88  3549.5  936.88  3554.8  937.06  3576.5  936.54
    3587  936.53  3588.1   936.5  3591.9  936.23  3592.3  936.22  3608.4  936.22
  3611.3  936.31  3613.8  936.33  3618.6  936.22    3619  936.21  3619.5  936.19
  3624.5  935.88  3632.5  935.88  3640.6  935.56  3660.2  935.56  3674.1  935.22
  3683.5  935.33  3684.7   935.3    3688  935.22  3688.6  935.22  3688.8  935.22
  3692.5   935.4  3694.2  935.41  3696.3  935.36  3698.1  935.31  3699.5  935.28
  3700.2  935.28  3704.1  935.48  3710.3  935.56  3726.4   935.3  3737.1  935.56
  3758.5  935.56  3769.8  935.24  3777.5  935.15  3781.4  934.95  3785.1  934.91
  3785.3  934.91  3789.1  934.91  3790.7  934.91    3793  934.833796.839934.5938
 3895.92934.5938 3895.92933.5938 3950.69933.5938 3950.69933.28134102.038933.2813
  4102.3   933.3  4106.2  933.55  4106.9  933.59 4127.72  933.59 4127.72  934.25
 4165.24  934.25 4165.24934.5625 4272.52934.56254396.846934.5625  4407.1  934.62
  4409.4934.5625 4409.66934.5625  4417.8  934.694423.292934.5625 4436.78934.5625
 4436.78935.0609 4475.45935.0609 4475.45935.56254569.993935.5625  4596.9  936.84
  4641.6  936.84  4641.6936.88014653.302936.8801  4655.1  936.97  4657.8  937.11
  4666.4  937.19  4669.2  937.32  4672.8  937.46  4673.3  937.45  4676.3  937.46
  4679.4  937.46  4686.9  937.83  4687.2  937.84  4690.5  937.99  4693.8  938.14
    4694  938.14  4694.2  938.14  4697.5  938.15  4708.1  938.16    4715  937.86
  4722.3  937.51  4722.6   937.5  4725.8   937.5  4727.1   937.5  4729.4  937.52
  4730.5   937.5    4733  937.41  4736.6  937.34  4740.2  937.45  4740.6  937.43
  4742.6  937.24  4743.8   937.1  4746.6  936.924747.647936.8801  4787.3936.8801
  4787.3936.1295  4794.4  935.88  4794.7  935.88    4798  935.88  4803.5  935.88
  4806.4  935.76    4812  935.55  4812.4  935.54  4812.5  935.54  4812.6  935.53
  4816.1  935.41  4818.4  935.33  4819.7  935.29  4823.3  935.19  4824.3  935.12
  4826.9  935.02  4829.4  934.93  4830.3  934.89  4830.5  934.89  4830.8  934.88
  4859.4  934.85  4860.2  934.88    4863  934.96  4864.1  934.93  4866.2  934.92
  4866.6  934.91  4872.2  935.22  4876.4  935.22  4878.1  935.22  4884.1  935.53
    4914  935.53  4917.2  935.63  4924.4  935.74    4926  935.73    4928  935.71
  4931.1  935.83  4931.6  935.85    4932  935.84  4933.6  935.83  4937.9  935.88
  4949.4  935.53  4991.7  935.53    4993  935.53  4996.6  935.47  4997.7  935.44
  5000.2  935.35    5003  935.26  5003.9  935.23  5004.1  935.22 5075.29  935.22
 5075.29935.5625 5128.42935.5625 5128.42 935.8755189.473 935.875    5195  936.17
  5195.2  936.21  5206.1  938.42    5213   940.1  5213.3  940.16  5213.8  940.27
  5216.9  940.84  5218.9  941.12  5220.5  941.38  5222.1  941.63
Lateral Weir Centerline=9
405847.8006257981802488.50152492405497.0219099591803303.54618819
405149.6357641761804138.42919497405133.8358551361804651.89470995
405558.7596740511804862.98589741406282.5008882031804857.50300943
407162.5044099571804517.56395429407364.0005434421804322.92143079
407777.9585863851804051.51847548
LW Div RC=0,False,,

Type RM Length L Ch R=1,8000,1000,1000,1000
XS GIS Cut Line=2
407659.8134649961804055.49241197407998.5374273721804423.27778051
Node Last Edited Time=Apr/01/2026 19:32:50
#Sta/Elev=155
       0  935.22    22.9  935.22    25.5  935.16    27.9  934.99    30.3  934.88
    39.7  934.88    59.8  934.88    61.9  934.97    64.5  935.15    67.2  935.22
    89.4  935.22    92.8  935.14    96.3  934.89    99.8  934.81   103.4  934.58
   106.9   934.5   109.5  934.31   111.5  934.03     114  933.73   116.3  933.56
   117.5  933.53   118.9  933.44   123.1  933.05   124.6  932.94   126.3  932.91
   133.6  932.91   135.2  932.87   136.7  932.78     141  932.37   142.3  932.22
   143.5  932.03   145.8  931.48   148.4  930.65   149.4  930.35   150.3  930.03
   155.8  927.72   156.5  927.51   157.1  927.34   163.2  926.45   163.5  926.39
   170.5   925.7   174.2  925.77   177.5  925.69   178.8925.6295   184.8  925.35
   188.3   925.1   191.1  925.03   191.8  925.03   192.7  925.03   195.4  924.97
   198.9  924.74   200.1  924.72   204.7  924.72   207.4  924.58   209.5  924.42
   211.5  924.38   214.8  924.22   216.6   924.1   220.2  924.01   223.7  923.75
   225.1  923.72   231.9  923.72   234.3  923.66   237.8  923.42   238.7  923.41
   252.3  923.41   255.5  923.48   259.1  923.73   265.8  924.69   266.5  924.75
   269.7  925.11   272.6  925.58   279.4  926.84   280.3  926.98   281.3  927.18
   286.2   928.1   287.4  928.29   288.6  928.54   290.9  929.08     293  929.56
   294.5  929.86     296  930.26     298  930.67   299.8  931.13   301.5  931.52
   303.4  931.94   306.6   932.4   313.4  933.69   315.7  934.18   318.2  934.82
   319.2   935.1   320.2  935.31   322.8  935.84   325.5  936.56   326.3  936.79
     327  936.98   329.8  937.43   336.9  938.24   340.3  938.48   340.5  938.49
   347.4   938.5   351.1  938.93   354.2  939.16     361  939.47   361.7   939.5
   363.6939.5966   367.8  939.81   374.6  940.12   375.9  940.19   377.2  940.26
   381.4  940.47   382.9  940.47   384.6  940.47   386.5  940.51   388.2  940.62
     392  940.97   393.5  941.05     395  941.12   397.1  941.17   399.3  941.32
   401.8  941.44   408.6  941.44   411.2  941.57   414.1  941.72   414.8  941.75
   415.4  941.78   421.5  942.06   421.9  942.08   428.9  942.43     429  942.44
   432.5  942.51   435.8  942.73     436  942.74   436.2  942.75   439.5  942.97
   446.6  943.74   449.4  944.18   450.2  944.35     451  944.56   458.4  946.59
   460.8  947.19     463  947.63   464.3  947.87   465.8  948.14   467.9  948.43
   469.8   948.7   471.4  948.88   474.9  949.12   476.6   949.3   480.5  949.84
     482  949.94   483.4  949.97   495.3  949.97   496.2  950.01     500  950.19
#Mann=1,-1,0
       0    0.07       0
Bank Sta=178.8,363.6
XS Rating Curve=0,0
XS HTab Starting El and Incr=923.56,0.3,89
XS HTab Horizontal Distribution=5,5,5
Exp/Cntr(USF)=0,0
Exp/Cntr=0.3,0.1

Type RM Length L Ch R=1,7000,1000,1000,1000
XS GIS Cut Line=2
  406980.97091851804642.99625589407204.5576523931805090.21988276
Node Last Edited Time=Apr/01/2026 19:32:50
#Sta/Elev=119
       0  933.91    31.4  933.91    36.9  934.25    54.5  934.25    57.7  934.29
    61.4   934.5    64.1  934.54    64.9  934.56    81.7  934.56    87.5  934.92
    92.8  935.22    98.4  935.22     104  935.56   109.6  935.56   115.2  935.88
   143.2  935.88   143.4  935.87   147.2  935.61   148.7  935.56   159.9  935.56
   165.5  935.22   177.5  935.22   179.5935.1887   180.7  935.17   182.3  935.09
   187.9  934.59   191.9  933.78   193.5  933.45   195.6  932.82   199.3  931.58
   203.1  930.54   204.6  930.17   210.2  929.02   214.2  927.92   215.8  927.54
     218   927.1   221.4   926.4   225.4  925.76     227  925.44   232.6  924.45
   232.9  924.41   236.6  924.12   238.2  923.93   240.3  923.68   243.8  923.41
     244  923.37   247.8  922.67   251.5  922.12   254.1  921.61     255  921.46
   255.2  921.43     267  920.74   270.1  920.51   271.7  920.47   277.6  920.47
   281.3  920.51   282.9   920.6     285  920.91   288.8  921.46   289.3  921.59
   292.5   922.3   294.1  922.72   299.7  924.01     300  924.14   300.5  924.41
   307.4  927.85   311.1  929.73   314.9  931.81   321.2  935.34     322   935.8
   324.2 936.878     326  937.76   327.6   938.6   329.8  939.48   332.4  940.44
   333.2  940.76   333.5  940.85     334  941.01   337.2  941.89   338.8  942.26
   340.9  942.63   344.4  943.09   344.7  943.12   345.2  943.19   348.4  943.61
     350  943.75   366.8  943.75     367  943.77   367.6   943.8   370.8     944
   372.3  944.09   389.1  944.09     390  944.14   393.1  944.32   394.7  944.41
   417.1  944.41   421.8   944.7   422.7  944.75   439.4  944.75   441.6  944.87
   444.2  945.02     445  945.06   456.2  945.06   456.5  945.08     457  945.11
   460.2  945.36   461.8  945.41   463.9  945.53   467.4  945.72   467.7  945.73
     473  946.06   484.1  946.06   486.3  946.18   488.9  946.33   489.7  946.38
   493.7  946.38   495.3  946.38   497.5  946.44     500  946.64
#Mann=1,-1,0
       0    0.07       0
Bank Sta=179.5,324.2
XS Rating Curve=0,0
XS HTab Starting El and Incr=920.62,0.3,87
XS HTab Horizontal Distribution=5,5,5
Exp/Cntr(USF)=0,0
Exp/Cntr=0.3,0.1

Type RM Length L Ch R=1,6000,1000,1000,1000
XS GIS Cut Line=2
406117.4781938321804880.79696089406153.9388449291805379.46580985
Node Last Edited Time=Apr/01/2026 19:32:50
#Sta/Elev=165
       0   930.3     5.3  930.62    10.3  930.62    15.3  930.97    16.9  931.13
    18.8  931.38    21.6  931.66    24.2  931.83    25.3  931.94    30.3  932.28
    30.9  932.34    35.3  932.92    40.3  933.25      45  933.87    45.8  933.95
    49.6  934.22    51.2  934.39    54.3   934.8    55.4  934.91    60.4  935.56
    65.4  935.88    85.5   938.5      87  938.65    89.1  938.93    90.5  939.08
    95.5  939.44    96.3  939.47    99.9  939.48   100.5   939.5   105.3   939.8
   110.5  940.16   120.6  940.16   121.6  940.19   124.4  940.19     127  940.29
     129  940.42   130.6  940.47   145.6  940.47   147.7  940.54   148.6   940.6
   150.6  940.68   160.7  940.73   161.7   940.7   164.8   940.5   165.7  940.47
   166.4   940.4   170.7  939.84   171.1  939.78   175.7  938.85   180.4  937.58
   180.7  937.49   200.8  929.42   205.8  927.72   210.8  926.36   213.1  925.81
   213.5  925.73   215.8   925.2   217.8  924.86   218.9  924.72   220.8  924.41
   225.8  923.75   227.2  923.62   229.7  923.28   230.9  923.16   235.9   922.8
   236.5  922.77   255.9   922.7   256.8  922.67   259.9  922.47   260.9  922.44
   262.2  922.39   264.5  922.39     266  922.33     286  922.23   287.9  922.29
   289.2  922.38     291  922.44   292.6  922.59   294.6  922.71   297.2  922.95
     301  923.41   301.9  923.55   305.5     924   306.1   924.1   310.9  925.34
   311.1  925.39   311.2  925.43   313.6  926.05   316.1  926.69   316.3  926.76
   320.6  928.19   321.1  928.38   325.3  929.72   326.1  929.97   331.1  931.28
   341.2  932.59   343.3  932.46   343.9  932.42   346.2  932.28   348.6  931.88
   348.7  931.85   351.2  931.44   353.3   931.7   354.1  931.87   356.2  932.15
     358  933.26   359.5  934.31   361.2  935.36   362.6  935.89     365  936.83
   366.2   937.3   367.3  937.81   371.2  939.66     372  940.18   372.1940.2548
   376.2  943.32   381.2  948.59   381.3  948.67     386   950.6   386.3   950.7
   386.6  950.75   390.7  951.57   391.3  951.67     392  951.74   395.3  952.19
   396.3  952.28   397.4  952.36     400  952.54   401.3  952.62   416.4  952.62
   418.7  952.77   421.4  952.94   423.4  952.94   424.5  952.94   426.4  952.94
   429.9  953.18   431.4  953.28   432.7  953.28   435.3  953.28   436.4  953.28
   441.4  953.59   446.4  954.25   446.7  954.27   450.8  954.55   451.4  954.59
   451.5   954.6   456.1  954.88   456.5  954.91   456.9  954.91   461.5  954.91
   465.4  955.18   466.5  955.25   467.7  955.33   470.1  955.47   471.5  955.56
   481.5  955.56     484  955.65   484.1  955.66   488.8  955.79   489.4  955.83
   493.4  955.97   494.8  955.96   496.6  956.01   498.1     956     500  955.99
#Mann=1,-1,0
       0    0.07       0
Bank Sta=164.8,372.1
XS Rating Curve=0,0
XS HTab Starting El and Incr=922.38,0.3,100
XS HTab Horizontal Distribution=5,5,5
Exp/Cntr(USF)=0,0
Exp/Cntr=0.3,0.1

Type RM Length L Ch R=1,5000,1000,1000,1000
XS GIS Cut Line=2
 405318.303602071804753.59165659405031.4737348321805163.13851259
Node Last Edited Time=Apr/01/2026 19:32:50
#Sta/Elev=159
       0  929.31    15.2  929.31    18.2   929.4    21.8  929.36    22.6  929.38
    27.4  929.66    45.7  929.66      47  929.69    48.7  929.81    51.8  929.97
    57.9  930.31      64  930.97    64.9  931.09    66.2  931.31    70.1  931.94
    72.1  932.31    74.9  932.96    75.7  933.18    76.2   933.3    79.3  934.15
    82.3  935.12    83.6  935.49    86.4  936.27    88.4   936.9      90  937.15
    93.6  937.55    94.6   937.7    97.2  937.97    99.8  938.12   104.4  938.44
   106.8   938.5   112.9  938.84   128.8  938.84   144.6  938.84   149.5  938.65
   151.1  938.54   153.3   938.5   161.7   938.5   161.8  938.49     162  938.48
   165.4  938.24   167.8  937.96     169  937.78   170.8  937.53   172.6  937.29
   176.2  936.68   179.5  935.96   186.1  934.91     187  934.74   188.2  934.46
   192.2  933.13   194.2  932.55   196.9  931.85   197.7  931.67   204.4  930.06
   204.9  929.97   205.6  929.84   216.6  928.25   219.3  927.94     222  927.74
   222.7  927.69   222.9  927.68   226.5  927.22   228.8  927.03   231.8  926.72
   233.6  926.41     235  926.25   247.2  925.14   251.6  924.54   253.3  924.41
   255.2  924.35   258.8  924.08   259.4  924.06   265.5  924.41     266  924.41
   269.5  924.46   271.6  924.58   277.7  925.15   284.1  926.06   287.5  926.63
   289.9  927.13   292.8  927.82   294.7   928.2   298.3  928.96   301.9  929.94
   302.1  930.01   303.5  930.43   305.4  930.98     309  932.05   310.2  932.37
   314.3  933.56   316.2  934.16   318.9   934.9   319.8  935.15   320.4  935.33
   323.4  936.12   326.5  936.83   332.6  938.37   334.2  938.71   336.4  939.11
   344.9  940.82   353.8  941.78   355.6942.0074   355.7  942.02     357  942.12
   362.5   942.4   362.9  942.44   363.1  942.46   364.6  942.52   366.5  942.59
   369.2   942.7   370.1  942.76   371.2  942.88   373.7   943.1   375.4  943.26
   377.2  943.49   380.8  944.06   381.5  944.21   384.4  944.99   387.6  945.68
     388  945.74   388.7  945.84   391.6  946.15   395.2   946.5   398.8  946.95
   399.8  947.03   402.4  947.31   405.4  947.63   405.9  947.69     406  947.69
   406.1   947.7     412  948.03   413.1  948.09   414.8  948.18   416.7  948.27
   418.1  948.34   423.5  948.34   423.9  948.35   427.5  948.61   430.3  948.69
   431.1  948.73   432.2  948.79   434.7  948.91   436.4     949   438.3     949
   440.9     949   442.5     949   445.5  949.08   446.1  949.13   448.6   949.3
     449  949.33   449.7  949.34   460.8  949.34   463.4  949.48   466.9  949.66
   485.2  949.66   488.5  949.84   491.3     950     500     950
#Mann=1,-1,0
       0    0.07       0
Bank Sta=128.8,355.6
XS Rating Curve=0,0
XS HTab Starting El and Incr=924.21,0.3,86
XS HTab Horizontal Distribution=5,5,5
Exp/Cntr(USF)=0,0
Exp/Cntr=0.3,0.1

Type RM Length L Ch R=1,4000,1000,1000,1000
XS GIS Cut Line=2
405179.1073194671804159.22085898404696.1642310071804029.73737236
Node Last Edited Time=Apr/01/2026 19:32:50
#Sta/Elev=109
       0  927.69      66  927.69    70.2  927.94      71  927.98    71.5  927.99
    75.1  927.96    76.4     928    91.9     928    92.8  928.03    95.5  928.05
    99.6  928.26   102.2  928.34   107.4  928.66   112.6     929   117.8  929.31
     123  929.66   128.1  929.97   133.3  930.31   138.5  930.31   139.3930.3577
   143.7  930.62   166.7  930.62   169.5  930.58   170.6  930.53     173  930.36
   177.1  930.23   179.9  930.08   185.1  929.67   205.7  926.69   209.8  926.15
     211  926.03   216.1  925.72   221.3  925.38     222  925.35   226.1  925.07
   226.5  925.06   227.2  925.04   230.2  925.01   231.7  924.94   273.1  921.61
   275.1  921.63   276.7  921.59   278.3  921.58   279.2  921.58   282.6  921.73
   288.6  922.09   290.8  922.24   291.4  922.28     299  922.75   299.6  922.79
   301.9  922.95   303.7  923.06   304.1  923.09     305  923.17   307.7  923.36
   309.3  923.54   311.8  923.74   314.5  923.95   315.9  924.02   319.1  924.05
   319.7  924.06   324.1  924.65   326.2  924.85   328.2  924.99     330  925.21
   332.2  925.31   333.2  925.32   335.2  925.38   336.3  925.45   339.3925.6525
   340.3  925.72   340.4  925.72   345.5  926.12   348.6   926.3   352.6  926.43
   354.5  926.56   355.9  926.62   356.7  926.66   359.8  926.69   376.6  926.69
   377.1  926.67   379.1  926.54   381.2  926.39   381.8  926.38   382.8  926.62
   385.3  927.14     387  927.61   389.4  928.47   392.1  929.44   393.5  929.91
   396.9   931.1   397.3  931.24   397.5   931.3   401.6   932.2   402.5  932.35
     404  932.51   405.7  932.75   407.7  932.94   428.4  932.94   430.2  933.05
   432.3  933.17   433.5  933.25   469.8  933.25     475  933.59     495  933.59
   495.5   933.6   495.7  933.61   495.9  933.62     500  933.88
#Mann=1,-1,0
       0    0.07       0
Bank Sta=139.3,339.3
XS Rating Curve=0,0
XS HTab Starting El and Incr=921.73,0.3,40
XS HTab Horizontal Distribution=5,5,5
Exp/Cntr(USF)=0,0
Exp/Cntr=0.3,0.1

Type RM Length L Ch R=1,3000,1054.7,1054.7,1054.7
XS GIS Cut Line=2
405561.6979706371803293.95642465405117.8067064641803063.82484144
Node Last Edited Time=Apr/01/2026 19:32:50
#Sta/Elev=117
       0  936.88    69.1  936.88    74.7  936.53    97.3  936.53   102.9  936.22
   114.2  936.22   119.8  935.88   125.4  935.56   129.3  935.51   131.1   935.4
   136.7  934.91     139934.6054   140.4  934.42   144.1  934.09   147.6  933.64
     148  933.58   151.5  933.26   153.6  933.08   158.4  932.37   159.2  932.23
   160.1  932.01   162.7  931.29   164.8  930.77   166.4   930.5   169.3  929.86
   170.1  929.67   170.5  929.55   173.8  928.41   176.1  927.52   177.5  926.91
   180.1  925.62   181.2  925.22   181.7  925.06   183.5  924.61   184.9  924.17
   187.4  923.74   188.6  923.88     191  924.06   192.3  924.12     193  924.13
   198.6   924.3   199.7  924.37   201.9  924.41   203.5  924.45   204.3  924.48
   207.2  924.48   209.9  924.41   210.9  924.46   212.7  924.56   214.6  924.69
   218.3   924.8     222  925.04   223.6  925.06   226.8  925.06   229.4  925.14
   230.2  925.19   233.1  925.36   234.5  925.38   238.1  925.38   240.5  925.45
   244.3  925.43     255  926.03   260.6  926.38   271.9  926.38   274.5926.5214
   277.6  926.69   283.1  926.54   288.7  926.69   288.8  926.69   292.5  926.63
   296.2  926.74   299.9  926.67     300  926.67   305.6  926.67     311  926.34
   311.3  926.33   312.1  926.25   314.7  926.05   318.4   925.6   321.4  925.13
   322.1  925.03   322.5  924.95   328.2  924.44   329.6  924.83   332.2  926.43
   333.8  927.44     337  929.37   339.4  930.95   340.7  931.36   343.1  931.93
   344.4  932.18   345.1  932.28     354  932.28   355.5   932.3   356.3  932.35
   358.9  932.49   359.2  932.52     362  932.59     407  932.59   407.5  932.61
   412.7  932.94   440.8  932.94   444.5   933.2   446.4  933.25   452.1  933.25
   452.5  933.27   455.7  933.47   457.7  933.59   462.6  933.86   463.1  933.89
   463.3  933.91   464.2  933.93   466.8  933.97     469  934.11   470.5   934.2
   473.5  934.25     500  934.25
#Mann=1,-1,0
       0    0.07       0
Bank Sta=139,274.5
XS Rating Curve=0,0