Geom Title=Muncie Geometry - 50ft User n Value Regi
Program Version=6.60
Viewing Rectangle=123173.36,126131.97,550673.04,548542.06

River Reach=White,Muncie
Reach XY=87
       126102.96       548702.53       126074.05       548711.43
       126045.13       548715.87        126005.1       548724.77
       125980.63       548733.67        125940.6       548753.68
       125916.13       548775.93       125882.77       548822.63
       125862.76       548873.79       125853.86       548907.15
       125851.63       548942.73       125849.41       549000.56
       125831.62       549038.37       125807.15       549073.96
       125789.36        549096.2       125742.65       549147.35
       125709.51       549160.73       125671.33       549172.39
       125613.69       549189.26       125564.96       549212.22
        125518.1       549255.33       125495.78       549303.04
       125480.21       549349.75       125469.09        549409.8
       125469.09       549469.85       125455.74        549529.9
       125440.17       549592.18       125415.71       549636.66
        125377.9        549667.8       125335.64       549676.69
       125291.16       549676.69       125246.67       549665.57
       125191.07       549638.88       125108.78       549592.18
       125048.73       549561.04        124990.9       549525.45
       124941.97       549509.88       124897.49       549496.54
       124839.66       549496.54       124801.85       549498.76
       124757.37       549521.01        124741.8       549534.35
       124699.54       549587.73       124675.08       549629.99
       124630.59       549674.47       124559.42        549732.3
       124503.82       549776.78       124472.68       549810.14
       124432.65       549854.62       124390.39       549883.54
       124341.46         549908.       124301.42       549934.69
       124254.72       549985.85       124216.91       550030.33
       124187.99       550052.57       124127.94        550101.5
       124070.12       550128.19       124025.63       550152.65
       123963.36        550174.9       123914.43       550194.91
       123878.84       550199.36       123821.02       550206.03
       123772.08       550210.48       123723.15       550210.48
        123663.1       550206.03       123596.38       550192.69
       123538.55       550177.12       123489.62       550154.88
       123456.26       550137.09       123425.12       550103.72
       123405.11       550065.91       123396.21       550016.98
       123396.21       549959.16       123418.45       549892.43
       123476.28       549750.09       123529.66       549654.45
        123598.6       549545.47       123624.14       549500.05
       123632.93       549471.88       123628.54       549427.85
       123600.83       549363.09       123549.67       549311.94
       123476.28       549260.78       123418.45       549220.75
       123360.62       549182.94        123302.8       549158.47
       123260.54       549154.03
Rch Text X Y=125392.35,548815.4
Reverse River Text=0

Type RM Length L Ch R =1,15696.24,69.6956,64.2305,51.1576
XS GIS Cut Line=4
        126017.5       548620.97       126048.79       548693.98
       126053.66        548750.3       126084.25       548855.99
Node Last Edited Time=Dec/10/2015 15:50:50
#Sta/Elev=134
       0293.5346  8.2906293.5346  9.9487293.5285 11.6068293.4767 13.2649 293.434
 16.5811 293.434 18.2392293.4035 19.8973293.3608 21.5555293.2877 23.2136293.1597
 24.8717293.0012 26.5298292.8031 28.1879292.5135  29.846292.2453 31.5041292.0502
 34.8204291.6448 41.4528291.0749 43.1109290.9225  44.769290.7579 46.4271290.5445
 51.3984290.1178 53.0565290.0264 54.7146289.9532 56.3728289.8922 58.0309 289.816
  59.689289.7032 61.3471289.6331 63.0052289.6088 64.6633289.5265 66.3214289.4533
 67.9795289.4289 69.6377289.3619 71.2958289.3344 72.9539289.3192  74.612 289.243
 76.2701 289.182 77.9282289.0723 79.4309288.8712  80.961288.5877 82.4911288.3377
 84.0212287.9964 85.5513287.6702 87.0814287.2984 88.6115286.9326 90.1415286.5425
 91.6686286.1706 93.1987285.9512 94.7288 285.814 96.2589285.7073  97.789285.6342
 99.3191285.6342100.8492285.6281102.3762285.5945103.9063285.5945105.4364 285.686
106.9665285.9451108.4966286.3139110.0267286.7071111.5568287.1186113.0869287.5178
114.6139287.8988 116.144288.1975117.6741288.4749119.2042288.6761120.7343288.8559
122.2644288.9352123.7945288.9565125.3216289.0418126.8517 289.054129.9118289.0388
 131.442289.0083 132.972288.9352134.5021 288.929135.9652288.8925137.5501288.8163
139.1382288.7188140.7231288.6182142.3111288.5328143.8961288.5206145.4841 288.417
 147.069288.3347148.6571288.3164 150.242288.2189  151.83288.1335 153.418288.1183
 155.003 288.033 156.591288.0116 158.176287.9354 159.764287.9171161.3489287.8348
162.9369287.8348164.5219287.8257166.1099287.7495167.6949 287.716169.2829287.6337
170.8678287.6184172.4558287.5178174.0408287.4355175.6288287.4264177.2138287.3471
178.8018287.3075180.3867287.2344181.9747287.2344183.5627287.2191185.1477287.1308
186.7357287.0606188.3207286.9479189.9087286.9357193.0816286.9357194.6666286.9174
196.2546286.8351205.7735286.8351207.3585286.8778208.9465286.9448210.5314287.0424
212.1195287.1887213.7075287.4325215.2924287.7495216.8804288.0085218.4654288.4323
220.0534 288.795221.6384289.1942223.2264289.6088227.9843290.5933229.5723290.9164
231.1573291.1693232.7453291.3675234.3302 291.593235.9182291.8125237.5032291.9527
239.0912292.0502240.6762292.1508242.2642292.2331245.9949292.2331
#Mann=3,0,0
       0    0.07       0 76.2701    0.04       0122.2644    0.07       0
Bank Sta=76.2701,122.2644
XS Rating Curve=0,0
XS HTab Starting El and Incr=285.8994,0.1524,100
XS HTab Horizontal Distribution=5,5,5
Exp/Cntr=0.3,0.1

Type RM Length L Ch R =1,15485.51,36.9509,35.0794,31.6352
XS GIS Cut Line=3
       125952.83       548641.83       126039.75       548858.77
       126040.45       548862.95
Node Last Edited Time=Dec/10/2015 15:50:50
#Sta/Elev=93
       0292.4343  1.6429292.4343  3.2827292.4282  4.9256292.3702  6.5684292.3337
 14.7767292.3337 16.4165292.3489 18.0594292.3885 19.7023292.4343 41.0444292.4343
 42.6872292.3794 44.3271292.3367 54.1782292.3337 55.8211292.2575 57.4609292.2331
 59.1038292.2331 60.7466292.1356 62.3865292.0959 64.0293 292.035  67.312291.8338
 68.9549291.6387 70.5947291.3614 72.2376290.8066 73.8805290.1696 75.5203289.2674
 77.1632288.3469  78.806287.5636 80.4459286.8839 82.0887286.4206 83.7286286.2346
 88.6541285.9359  90.297285.9359 91.9399285.8354100.1481285.8354 101.788285.9329
103.4308286.1341105.0737286.3109106.7135286.5516111.6391287.5727 113.282 287.911
114.9218288.2524116.5647288.4932118.2075288.6334121.4902288.7126123.1331 288.734
124.7729288.6944126.4158288.6364129.6985288.6334132.9812288.4353137.9068288.4353
139.5496288.3347144.4752288.3347146.1181288.2341147.7579288.2341149.4008288.1945
151.0406288.1366154.3263287.9354 157.609287.9354159.2519287.8348164.1775287.8348
165.8173287.7739167.4602287.6367170.7429287.6337172.3857287.5148174.0256287.3746
177.3113287.2923178.9511287.1551 180.594287.1338182.2369287.0363187.1594287.0363
190.4451287.2344 192.085287.2344193.7278287.3929195.3707287.4508197.0105287.6123
200.2963287.9324201.9361288.2311 203.579288.5511205.2188288.8315206.8617289.1699
208.5045289.5326213.4301290.4317215.0699290.7335216.7128291.0291218.3557291.2882
219.9955 291.532221.6384291.7332223.2782292.0319224.9211292.1356226.5639292.3337
229.8466292.5349236.7961292.5349 237.936292.5257
#Mann=3,0,0
       0    0.07       0 77.1632    0.04       0118.2075    0.07       0
Bank Sta=77.1632,118.2075
XS Rating Curve=0,0
XS HTab Starting El and Incr=286.1402,0.1524,100
XS HTab Horizontal Distribution=5,5,5
Exp/Cntr=0.3,0.1

Type RM Length L Ch R =1,15370.43,53.2821,50.3347,35.9115
XS GIS Cut Line=6
       125915.98       548693.98       125941.01       548718.32
       125956.31       548744.74       125977.87       548789.94
       125995.25       548830.26       126008.46       548865.03
Node Last Edited Time=Dec/10/2015 15:50:50
#Sta/Elev=88
       0291.3309  6.3764291.6326 14.8773292.0319 17.0048 292.035 19.1292292.1325
 21.2568292.1386 23.3812  292.23 25.5057292.2361 36.6735292.2361 38.4353292.2178
  40.194292.1356 41.9557292.1356 43.7175292.1173 45.4792292.0167 47.2379  291.91
 48.9996291.6936 50.7614291.3065 52.5231290.7731 54.2818290.0659 56.0436289.2552
  57.656288.3469 59.2988287.5636 60.9387286.8839 62.5815286.4206 64.2214286.2346
 69.1469285.9359 70.7898285.9359 72.4327285.8354 80.6409285.8354 82.2808285.9329
 83.9236286.1341 85.5665286.3109 87.2063286.5516 92.1319287.5727 93.7748 287.911
 95.4146288.2524 97.0575288.4932 99.2124289.1363102.5896289.0418104.2782289.0358
105.9668  288.99111.0325288.5542114.4097 288.356115.5162288.2707117.1773288.2159
118.8354288.1274120.4966288.0452122.1547288.0299123.8159287.9568 125.474287.9354
132.1125287.9354133.7737287.9049135.4318287.8562138.7511287.8166140.4092287.7343
142.0703287.6702143.7284 287.527145.3896287.4294147.0477 287.341148.7089287.2344
 150.367287.2283152.0281287.2344153.6862287.2344155.3474287.2496157.0055287.3868
159.4348287.5971161.0624287.7982162.6931 288.036164.3238288.3499165.9545288.7249
167.5851289.0937169.2158289.5417170.8465289.9532172.4772290.3311174.1048290.7701
175.7355291.1968177.3662291.5412178.9969291.8795180.6275292.1538182.2582292.3001
185.5196292.4983187.1503292.5349188.7779292.5349190.4086292.5988192.0392292.5714
193.6699292.4739195.3006292.4343196.6265292.3733
#Mann=3,0,0
       0    0.07       0 56.0436    0.04       0 99.2124    0.07       0
Bank Sta=56.0436,99.2124
XS Rating Curve=0,0
XS HTab Starting El and Incr=288.0847,0.1524,100
XS HTab Horizontal Distribution=5,5,5
Exp/Cntr=0.3,0.1

Type RM Length L Ch R =1,15205.29,66.0075,58.549,48.4967
XS GIS Cut Line=4
       125896.81       548751.59       125910.81       548770.08
       125935.47       548792.39       125983.57       548867.13
Node Last Edited Time=Dec/10/2015 15:50:50
#Sta/Elev=63
       0 288.673  1.9111288.6364  5.7333288.6334  7.6444288.5359  9.5555288.5328
 11.4666288.4323 13.3777288.1671 15.2918287.9903 17.2029287.7739  19.114287.2496
 21.0251287.0637 23.1983286.9509  27.307287.1308 29.3614 287.277 31.4188287.4112
 33.4731287.6276 35.5275287.8501 37.5818288.0391 39.6392288.2128 41.6936288.3926
 43.7479288.5115 45.8023288.6883 47.8597288.7919  49.914288.8346 51.9684288.8925
 54.0228288.9352 70.9483288.9352 72.7619288.8437 74.5754 288.737 76.3859288.5724
 78.1995  288.42   80.01288.3256 81.8236288.2402 83.6371288.1153 85.4476 288.036
 89.0748 288.036 90.8853287.9568 92.6988287.9354 94.5124287.9354 96.3229287.8623
 98.1365287.7556  99.947 287.719101.7605287.5727103.5741287.4569105.3846287.3563
107.1982 287.335110.8222287.1551112.6358287.1338114.4463287.0485116.2599287.0363
121.6975287.0363123.5111286.9448125.3216286.9357128.9456286.9357130.7592286.9509
132.5728287.0149134.3833287.1125136.1968287.3015138.0104287.6428139.8209287.9568
141.6345288.2951 143.445288.7645145.3347289.1973
#Mann=3,0,0
       0    0.07       0  5.7333    0.04       0 47.8597    0.07       0
Bank Sta=5.7333,47.8597
XS Rating Curve=0,0
XS HTab Starting El and Incr=287.2405,0.1524,100
XS HTab Horizontal Distribution=5,5,5
Exp/Cntr=0.3,0.1

Type RM Length L Ch R =1,15013.20,29.8887,29.212,25.6032
XS GIS Cut Line=3
       125860.73       548813.44        125901.1       548831.05
       125945.78       548887.75
Node Last Edited Time=Dec/10/2015 15:50:50
#Sta/Elev=43
       0288.0543  1.6612287.6154  3.3254287.3319  4.9865287.1734  6.6507287.0546
  8.3119287.0363 11.6373287.0363 13.3015286.9662 14.9626286.9357 16.6268286.8656
  18.288286.8351 19.9522286.8351 21.6134 286.765 23.2776286.7345 31.5895286.7345
 33.2537286.8168 34.9148  286.89  36.579286.9479 38.2402287.0698 39.9044287.1399
 41.5656287.2222 44.0497287.3563 45.9913287.4355 47.9298287.4355 49.8714287.4934
 51.8099287.5361 75.0936287.5361 77.0321287.4752 78.9737287.4447 80.9122287.4508
 84.7923287.6519 86.7339287.7434 88.6755287.7495 94.4941288.0512 96.4357288.1366
 98.3742288.1518100.3158288.2463102.2543288.2676104.1959288.3408106.1344288.3499
110.0176288.5511111.9561288.6364116.2324288.6364
#Mann=3,0,0
       0    0.07       0  1.6612    0.04       0 51.8099    0.07       0
Bank Sta=1.6612,51.8099
XS Rating Curve=0,0
XS HTab Starting El and Incr=287.0393,0.1524,100
XS HTab Horizontal Distribution=5,5,5
Exp/Cntr=0.3,0.1

Type RM Length L Ch R =1,14917.36,18.3825,18.6294,15.5844
XS GIS Cut Line=3
       125845.26       548840.07       125886.07       548855.53
       125914.85       548883.45
Node Last Edited Time=Dec/10/2015 15:50:50
#Sta/Elev=39
       0288.1762  1.6307288.0787  3.2583287.9232   4.889  287.78  6.5197287.6245
  8.1473287.4233   9.778287.2953 11.4087287.2191 13.0393287.1856 16.2977287.1277
 17.9283287.0789  19.556287.0363 22.8173287.0363  24.445286.9784 26.0756286.9357
  29.337286.9357 30.9646286.8808 32.5953286.8351  34.226286.8381 37.4843286.9814
  39.115287.0911 40.7426287.1673 42.3733287.2313 43.6382287.2709 45.7596 287.341
 47.8841287.4355 50.0085287.4355 52.1299287.4752 54.2544287.5361 56.3789287.5727
 58.5003287.6367 60.6247287.7678 62.7461287.9293 73.3654 288.417 75.4868288.5206
 77.6112 288.609 79.7357288.7157 81.8571288.8041 83.7347288.8346
#Mann=3,0,0
       0    0.07       0  3.2583    0.04       0 62.7461    0.07       0
Bank Sta=3.2583,62.7461
XS Rating Curve=0,0
XS HTab Starting El and Incr=287.1399,0.1524,100
XS HTab Horizontal Distribution=5,5,5
Exp/Cntr=0.3,0.1

Type RM Length L Ch R =1,14856.24,24.7406,20.9824,15.8405
XS GIS Cut Line=3
       125836.24       548855.96        125874.9       548871.43
       125906.26       548892.04
Node Last Edited Time=Dec/10/2015 15:50:50
#Sta/Elev=39
       0288.3195  1.6429288.2768  3.2827288.2159  4.9256288.1213  6.5654287.9629
  8.2083287.8226  9.8481287.6245  11.491287.4417 13.1308287.3015 14.7737287.0941
 16.4135286.9539 18.0564286.7924 19.6962286.7071  21.339286.6674 24.6217286.5669
 26.2616286.6095 27.9044286.6705 29.5443286.7101 31.1871286.8016  32.827286.8351
 34.4698286.8991 37.7525286.9539 39.3924286.9997 41.6357287.1368 43.4614287.1368
 47.1068 287.338 48.9326287.4355 50.7553287.4355 56.2265287.9263 59.8749288.0604
 61.7007 288.225 63.5234288.3377 65.3461288.4353 67.1718288.5237 68.9945288.6364
 70.8203 288.737 76.2914 288.737 78.1141288.8163 79.1627288.8346
#Mann=3,0,0
       0    0.07       0  8.2083    0.04       0 56.2265    0.07       0
Bank Sta=8.2083,56.2265
XS Rating Curve=0,0
XS HTab Starting El and Incr=286.8717,0.1524,100
XS HTab Horizontal Distribution=5,5,5
Exp/Cntr=0.3,0.1

Type RM Length L Ch R =1,14787.40,27.0236,27.4869,22.5034
XS GIS Cut Line=3
       125825.94       548882.59       125865.88       548888.61
       125899.39       548902.78
Node Last Edited Time=Dec/10/2015 15:50:50
#Sta/Elev=40
       0287.9232  1.5423287.9476  3.0815287.9629  4.6238287.9415  6.1661 287.847
  7.7053287.7495  9.2476287.5605 10.7869287.2709 12.3292286.9723 13.8714286.5851
 15.4107 286.448 18.4953286.2499 20.0345286.0609 21.5768285.9481 23.1191285.8689
 24.6583285.8414 26.2006285.8354 32.3637285.8354  33.906285.9237 35.4482286.0243
 36.9875286.1615 38.5298286.3139 40.3982286.5394 42.0502 286.637 43.7053286.6461
 45.3603286.7558 47.0154286.9448 50.3255 287.149 51.9806 287.274 53.6357287.5453
 55.2907 287.655 56.9458 287.844  63.563288.2463 66.8731288.4414 68.5282288.5542
 70.1832288.7462 71.8383288.8346 73.4934288.8346 75.1484288.8437 76.7761288.9352
#Mann=3,0,0
       0    0.07       0  4.6238    0.04       0 56.9458    0.07       0
Bank Sta=4.6238,56.9458
XS Rating Curve=0,0
XS HTab Starting El and Incr=286.1402,0.1524,100
XS HTab Horizontal Distribution=5,5,5
Exp/Cntr=0.3,0.1

Type RM Length L Ch R =1,14697.22,49.3593,49.2618,47.1434
XS GIS Cut Line=2
       125819.92       548908.37       125898.96       548922.54
Node Last Edited Time=Dec/10/2015 15:50:50
#Sta/Elev=40
       0288.3377  4.6452288.3377  6.1935288.2798  7.7419288.3316  9.2903288.3377
 10.8387288.2433 12.3871288.0208 13.9355287.6611 15.4838287.2892 17.0322286.8778
 18.5806286.6431 21.6774286.4023 23.2258286.2864 24.7741286.2377 27.8709286.2377
 29.4193286.1706 30.9677286.1828 32.5161286.2011 34.0644286.3291 35.6098286.4297
 38.7066286.5943 40.2549286.6736 41.8033286.7314 43.3517286.7375 44.9001 286.829
 46.4485286.8351 47.9969286.8351 49.5452286.9296  52.642287.1308 55.7388287.3289
 58.8355 287.722 60.3839287.8287 65.0291288.1305 66.5775288.3225 68.1258288.4292
 69.6742288.5298 71.2226288.8163  72.771 288.929 74.3194288.9352 80.2965288.9352
#Mann=3,0,0
       0    0.07       0 12.3871    0.04       0 60.3839    0.07       0
Bank Sta=12.3871,60.3839
XS Rating Curve=0,0
XS HTab Starting El and Incr=286.4754,0.1524,100
XS HTab Horizontal Distribution=5,5,5
Exp/Cntr=0.3,0.1

Type RM Length L Ch R =1,14535.60,28.2336,28.0081,29.7972
XS GIS Cut Line=3
       125815.63       548958.19       125866.31       548965.92
       125899.39       548966.78
Node Last Edited Time=Dec/10/2015 15:50:50
#Sta/Elev=42
       0288.6944  1.5423288.7005  3.0846288.6273  4.6238288.5023  6.1661288.1061
  7.7084287.1703  9.2507286.6461 10.7899286.3139 12.3322286.1371 13.8745286.1371
 15.4168286.1554 16.9591286.1615 20.0406 286.192 21.5829286.2011 23.1252286.1371
 24.6675286.1402 30.8336286.2011 32.3728286.2285 33.9151286.3474 35.4574286.4358
 36.9997286.4358  38.542 286.448 40.0812286.5364 43.1658286.5364 44.7081286.5486
 46.2504 286.637 49.3319 286.637 51.2704286.6736 52.7975286.7375 54.3215286.7741
 57.3695286.9753 58.8935287.1125 60.4175287.3106 61.9445287.5178 63.4685287.7952
 64.9925288.2189 66.5165288.7523 68.0405 289.243 69.5645 289.435 75.6636289.4411
 77.1876 289.435 84.3565 289.435
#Mann=3,0,0
       0    0.07       0  6.1661    0.04       0 63.4685    0.07       0
Bank Sta=6.1661,63.4685
XS Rating Curve=0,0
XS HTab Starting El and Incr=286.4419,0.1524,100
XS HTab Horizontal Distribution=5,5,5
Exp/Cntr=0.3,0.1

Type RM Length L Ch R =1,14443.72,36.4602,42.1325,46.482
XS GIS Cut Line=4
       125804.89       548983.11       125837.53       548990.84
       125863.44       548992.35       125889.08       548999.86
Node Last Edited Time=Dec/10/2015 15:50:50
#Sta/Elev=49
       0 288.737  1.5667288.7431   4.697288.9443  6.2636289.0358  7.8303289.0418
   9.397289.1059 10.9637289.1455 12.5303289.2369  14.094289.2308 15.6606289.2003
 20.3606288.8285 21.9273288.6974 23.4909 288.478 25.0576288.3225 26.6243288.1153
  28.191287.8226 29.7576287.6154 31.3243287.3197 33.5463286.9387 35.0733286.7375
 36.6004286.5394 38.1274286.3871 41.1815286.1889 42.7086286.1371 44.2326286.1066
 45.7596286.0822 47.2867286.1127 50.3408286.2194 51.8678286.2864 54.9189286.3871
 56.4459286.5272  57.973286.6796    59.5286.7863  61.088286.8869  62.676 287.085
  64.264287.2923  65.852287.4355   67.44287.6337 69.0281287.8958 70.6161288.2372
 72.2041288.6669 73.7921289.0144 75.3801289.1851 76.9681289.2857 78.5561289.3375
 80.1441289.3466 81.7321289.3863 83.3201289.4381 86.2127289.4381
#Mann=3,0,0
       0    0.07       0 20.3606    0.04       0 73.7921    0.07       0
Bank Sta=20.3606,73.7921
XS Rating Curve=0,0
XS HTab Starting El and Incr=286.3871,0.1524,100
XS HTab Horizontal Distribution=5,5,5
Exp/Cntr=0.3,0.1

Type RM Length L Ch R =1,14305.48,39.0967,42.4983,45.8053
XS GIS Cut Line=2
       125798.02       549016.18       125865.02       549041.95
Node Last Edited Time=Dec/10/2015 15:50:50
#Sta/Elev=35
       0288.3377  6.5319288.3377  8.1656288.2829  9.7963288.2372   11.43288.0756
 13.0637 287.783 14.6944287.4508 16.3281287.1308 17.9619286.9022 19.5925286.7558
 21.2263286.6187   22.86286.5364 27.7581  286.32 29.3919 286.256 31.0225286.2377
   34.29286.1676 35.9237286.1828 39.1881286.3139 40.8219286.4236 42.4525286.5851
 44.0863286.8016   45.72286.9357 47.3537287.1155 48.9844 287.341 50.6181287.5727
 52.2519287.7525 53.8825 287.911 55.5163288.0634   57.15288.3652 58.7807288.6487
 60.4144288.7919 65.3125289.0937 66.9463 289.118   68.58289.1363 71.7926289.1363
#Mann=3,0,0
       0    0.07       0   11.43    0.04       0   57.15    0.07       0
Bank Sta=11.43,57.15
XS Rating Curve=0,0
XS HTab Starting El and Incr=286.4724,0.1524,100
XS HTab Horizontal Distribution=5,5,5
Exp/Cntr=0.3,0.1

Type RM Length L Ch R =1,14166.05,35.1312,38.5328,43.9278
XS GIS Cut Line=2
       125783.41       549049.25       125846.55       549086.19
Node Last Edited Time=Dec/10/2015 15:50:50
#Sta/Elev=33
       0288.4383  1.7648288.4383  3.5326288.3408  5.2974288.3377  7.0622288.2707
   8.827288.0177 10.5948287.7739 12.3596287.5971 15.8923 287.082 17.6571286.9204
 19.4219286.8381 21.1866 286.704 24.7193286.3901 28.2489285.8719 30.0167285.7134
 31.7815285.5397 33.5463285.3416 35.3141 285.244 37.0789285.2989 40.6085285.2197
 44.1411285.3324 45.9059285.5427 47.6738285.7744 51.2034 286.323 52.9681286.6126
  54.736286.9265 56.5008287.1399 58.2656287.2984 60.0334287.4355  63.563287.6367
 67.0956287.8348 70.6252287.8379  73.152287.8775
#Mann=3,0,0
       0    0.07       0 12.3596    0.04       0 60.0334    0.07       0
Bank Sta=12.3596,60.0334
XS Rating Curve=0,0
XS HTab Starting El and Incr=285.5244,0.1524,100
XS HTab Horizontal Distribution=5,5,5
Exp/Cntr=0.3,0.1

Type RM Length L Ch R =1,14039.64,62.1701,55.0469,54.5714
XS GIS Cut Line=2
       125761.65       549073.94       125824.36       549126.35
Node Last Edited Time=Dec/10/2015 15:50:50
#Sta/Elev=41
       0 288.353  1.9873288.3377  3.9715288.2676  5.9588 288.164  7.9431287.9811
  9.9304287.9385 11.9177287.8684 13.9019287.6977 15.8892287.5757 17.8735287.3289
 19.8608287.0271  21.845286.7985 23.8323286.5821 25.8196286.4693 27.8039286.2986
 29.7912286.0274 31.7754285.8689 33.7627285.8597   35.75285.8963 37.7342285.9512
 39.7215286.1188 41.7058286.2925 43.6931286.4419 45.6773286.6095 47.6646286.6857
 49.6519286.7101 51.6362286.7558 53.6235286.9814 55.6077287.1033  57.595 287.213
 59.5823287.2984 61.5666287.4203 63.5538287.4386 65.5381287.5178 67.5254287.6367
 69.5096287.6916 71.4969287.7373 75.4685287.7373 77.4558287.7464   79.44287.8379
  81.726287.8379
#Mann=3,0,0
       0    0.07       0 17.8735    0.04       0 61.5666    0.07       0
Bank Sta=17.8735,61.5666
XS Rating Curve=0,0
XS HTab Starting El and Incr=286.1645,0.1524,100
XS HTab Horizontal Distribution=5,5,5
Exp/Cntr=0.3,0.1

Type RM Length L Ch R =1,13859.04,107.122,112.3401,115.7021
XS GIS Cut Line=6
       125652.71       549014.82       125660.25       549063.84
       125731.87       549122.27       125775.99       549155.71
       125921.74        549271.7       125956.96       549284.45
Node Last Edited Time=Dec/10/2015 15:50:50
#Sta/Elev=172
       0290.5354  1.5423290.3189  3.0846290.0751  4.6269289.9441  6.1692289.8983
  7.7084 290.005  10.793290.2702 12.3353290.3677 13.8775290.3982 15.4198290.4134
 16.9621290.4957 18.5044290.5506 20.0436290.5811 21.5859290.6573 23.1282290.6908
 24.6705290.7061 26.2128290.7091 27.7551290.6634 29.2974290.5902 30.8397290.5232
 32.3789290.4226 33.9212 290.325 35.4635290.2946 37.0058290.2519 38.5481290.2519
 40.0903290.2824 43.1749290.2915 44.7142290.2336 46.2564290.2214 49.5971290.2549
  51.563290.3555  53.529290.4012  55.498290.4561 57.4639290.5262 59.4299290.5536
 67.2998290.6176 69.2658 290.639 77.1327290.6481 79.1017290.6542 81.0677290.7396
 85.0026290.7457 86.9686290.7548 88.9345290.8188 90.9035290.8341 98.7704290.8371
100.7364 290.828102.7054290.7457104.6714290.7426106.6373290.7457108.6063   290.7
114.5073290.4561116.4732 290.389118.4392290.3464120.4082290.2214122.3741290.1544
124.3432290.1483126.3091290.0507128.2751289.8526130.2441289.5844132.2101289.1516
 134.176288.5755 136.145288.0085 138.111287.4477140.0769286.9082142.0276286.5608
145.8529286.0822 147.764285.9207149.6781285.7104153.5003285.5275155.4114 285.305
157.3256285.0032159.2367284.8691161.1478 284.988163.0619285.0947 164.973285.1313
168.7982285.1556170.7093285.0916172.6204285.1374176.4457285.1374178.3568285.2014
180.2679285.2532184.0931  285.43186.0042285.4482187.9184285.5976189.8294285.7561
193.6547286.1402197.3885286.6644199.3362286.7589201.2838 287.018203.2315287.0393
205.1792 287.085207.1268287.2374209.0745287.2374211.0222287.2466212.9698 287.338
214.9175 287.338216.8652287.3502218.8129287.4477220.7606287.4721222.7082287.5392
238.2896287.5392240.2373287.5483242.1849 287.591244.1326287.5453246.0803287.5483
 248.028287.5605255.8186287.6337267.5047287.6367273.3477287.6489275.2953287.7373
281.1384287.7373283.0861 287.719285.0337287.7373294.7721287.7373296.7198287.7495
298.6674287.8379304.5104287.8379306.4581287.8409308.4058287.8501310.3565287.9385
312.3042287.9476314.2519288.0391316.1995288.0482318.1472288.1366320.0949288.1488
322.0425288.2494323.9902288.3377325.9379288.3408327.8856288.3499331.7809288.5481
333.7286288.6395335.6763288.6487339.5716288.8498341.5193288.9321343.4669288.9474
345.4146288.9809  349.31 289.115351.2576289.1394353.2053289.1485 355.153289.1851
357.1006 289.243359.0483289.2491 360.996289.3344364.8913289.3497 366.839289.4076
368.7867289.4289370.7343289.5356 372.682289.4777374.6297289.5966376.5774289.7094
 378.525 289.749380.4727289.8496382.4204289.8709383.6578289.9044385.2764290.0385
386.8979290.1117388.5194290.1757 390.141290.2184391.7595290.2366395.0025290.3159
396.6241290.3342398.2425290.2976399.8641290.2397403.1071290.0904404.7287289.9623
406.3472289.8557407.9687289.8374409.5902289.8374411.2118289.9136417.6949290.3128
419.3134290.3372421.1178290.3372
#Mann=3,0,0
       0    0.07       0140.0769    0.04       0201.2838    0.07       0
#XS Ineff=1,-1
246.4095421.1178290.3378
Permanent Ineff=
       F
Bank Sta=140.0769,201.2838
XS Rating Curve=0,0
XS HTab Starting El and Incr=285.1739,0.1524,100
XS HTab Horizontal Distribution=5,5,5
Exp/Cntr=0.3,0.1

Type RM Length L Ch R =1,13490.47,83.2988,84.0212,80.9762
XS GIS Cut Line=4
       125572.65        549077.6        125636.8       549164.08
       125689.49        549235.1       125892.23       549389.73
Node Last Edited Time=Dec/10/2015 15:50:50
#Sta/Elev=151
       0287.9385  1.8989287.9811  3.7948288.0391  5.6937288.0391  7.5895287.9445
  9.4884287.9019 11.3843287.7464 13.2832287.6458  15.179287.3898 17.0779287.1521
 18.9738286.9631 20.8727286.8381 22.7686286.6126 24.6675286.5486 26.5633286.4541
 34.1528286.3504 37.9506286.3413 39.8465286.3413 41.7454286.2468 43.6413286.3139
 45.5402286.2925  47.436286.2468 49.3349286.2407 51.2308286.2407 53.1297286.1889
 55.0255286.1462 56.9244286.1402 58.8203286.0457 60.7192286.0396 62.6151286.0243
  64.514 285.939 66.4098285.8445 68.3087285.8384 72.1035285.6586 73.9993285.5824
 75.8982285.5397 77.7972285.4452  79.693285.3446 81.5919285.2867 83.4878285.2379
 85.3867285.1465 87.2825285.1404 89.1814285.0459 92.9762285.0368  94.872284.9423
100.5657284.9392102.4616284.8661104.3605284.8387107.6706284.8387109.5695284.8051
111.4654284.7381124.7516284.7381126.6475284.6649128.5464284.6405136.1359284.6405
138.0348284.7289139.9306284.7381143.7254284.7381145.6243284.8691147.5232285.0428
149.4191285.3568 151.318285.7713153.2138286.2011155.1127286.6217157.0116286.9479
158.9075287.2557160.8064287.4081162.7022287.4386   166.5287.4386168.3959287.3716
170.2948 287.338177.8843 287.338179.7832287.2709 183.578287.1094185.4738 286.957
187.3727286.8412191.1675286.8381193.0664286.7711194.9623286.7406217.1822286.7406
219.0994286.6766221.0166  286.64222.9338  286.64 224.851286.6034226.7651286.5394
236.3511286.5394238.2652286.5333240.1824286.4572242.0996286.4388261.2654286.4388
263.1826286.4724265.0998286.5394286.1828286.5394   288.1 286.573290.0172  286.64
313.0174  286.64314.9346286.7101316.8518286.7406318.7659286.7437320.6831 286.826
322.6003286.8595324.5175286.9387326.4347286.9387328.3519286.9723330.2661287.0393
332.1832 287.082334.1004287.1399 339.852287.1399341.7661287.1643343.6833287.2405
349.4349287.2405351.3521 287.277353.2663 287.338359.0178 287.338 360.935287.3685
362.8522287.4386366.6836287.4386368.6007287.4721370.5179287.5392376.2664287.5392
378.1837287.6215380.1009287.6398383.9352287.6398385.8524287.6733387.7665287.7404
389.6837287.7739 391.601287.8409393.5181287.9293395.4353 287.975397.3525 288.097
399.2667288.1427401.1838288.2615 403.101 288.417405.0182288.5359406.9354 288.673
 412.684288.9748414.6011289.0723416.5183289.2095418.4355289.4442420.3527 289.621
422.2669289.6728424.1841289.7368426.1013289.7734429.9357289.9715431.8528290.0385
 433.767 290.069435.6842290.1391441.4358290.1391443.3529290.1605445.2671290.2397
451.0796290.2397
#Mann=3,0,0
       0    0.07       0100.5657    0.04       0157.0116    0.07       0
#XS Ineff=1,-1
330.4641451.0796290.2388
Permanent Ineff=
       F
Bank Sta=100.5657,157.0116
XS Rating Curve=0,0
XS HTab Starting El and Incr=284.9453,0.1524,100
XS HTab Horizontal Distribution=5,5,5
Exp/Cntr=0.3,0.1

Type RM Length L Ch R =1,13214.80,134.9106,121.1397,86.3956
XS GIS Cut Line=4
       125518.24        549140.6       125564.63       549204.75
       125618.47       549271.75       125844.12       549498.55
Node Last Edited Time=Dec/10/2015 15:50:50
#Sta/Elev=123
       0287.9445   30.48287.9445 62.0664288.5389  63.947288.5389 65.8277288.5115
 67.7083288.4109 69.5889288.1366 71.4695287.7525 73.3501287.2496 75.2307 286.957
 77.1114286.9022 79.1596286.8564 81.1164286.7162  85.027286.5577 86.9808286.4632
 90.8914286.4114 92.8451286.4053 96.7557286.4388 98.7095286.4388100.6663 286.451
102.6201286.5577104.5738 286.832106.5306286.9539108.4844287.1064110.4412287.1948
 112.395287.2405129.9881287.2405131.9449287.1856133.8986287.0485135.8524286.9326
137.8092286.7863 139.763286.6705141.7198286.5394143.6736286.4693145.6273286.3413
147.5842286.3047149.5379286.2407171.5658286.2407173.7147286.3139175.8635286.3413
188.7626286.3413190.9145286.4084193.0634286.4388195.2122286.4388197.3641286.5059
199.5129286.5394201.6618286.5394203.8137286.6065205.9625  286.64208.1114286.6278
210.2632  286.64218.8616  286.64221.0105286.5669223.1624286.5394227.4601286.5394
229.6119286.5211231.7608286.4388257.5591286.4388259.7079286.4937261.8567286.5394
266.1574286.5394270.4582  286.64289.8069  286.64291.9557286.6736294.1046286.7406